data/case_ACTIVSg2000_modified.m
function mpc = case_ACTIVSg2000_modified
%   Modifications for SALT, which keys its dynamic devices by bus number and
%   so needs exactly one machine per generator bus:
%
%     - 112 out-of-service generator rows removed (544 -> 432). The power
%       flow (MATPOWER) already ignored them, so this is neutral.
%     - 49 in-service units sharing a bus lumped into 9 equivalent machines,
%       one per bus, summing Pg, Qg, MVA base and the P/Q limits (432 -> 392).
%       Nine buses hosted more than one unit; the other 383 already had one.
%     - 93 buses demoted from PV (type 2) to PQ (type 1). See below.
%
%   544 generator rows therefore become 392, one per generator bus.
%
%   What "demoted from PV to PQ" means: A bus's type says how the power
%   flow treats it: 1 = PQ (the voltage floats and P and Q are given); 
%   2 = PV (a generator holds the voltage at its Vg setpoint); 3 = slack. 
%   In this case, listed generators are out of service, yet the bus
%   is still marked type 2 - the type field was simply never updated when
%   those units were switched off. MATPOWER quietly treats a PV bus without
%   service as PQ.
%
%CASE_ACTIVSG2000  Synthetic Texas 2000-bus power system model.
%
%   This is an entirely synthetic 2000 bus case, geographically situated
%   in the US state of Texas. The case is designed with a 500, 230, 161
%   and 115 kV transmission network to serve a load that roughly mimics
%   the actual population of its geographic footprint. The synthetic
%   transmission system was designed by algorithms described in [1] to be
%   statistically similar to actual transmission system models but without
%   modeling any actual lines.
%
%   When publishing results based on this data, please cite:
%
%   [1] A.B. Birchfield, T. Xu, K.M. Gegner, K.S. Shetye, T.J. Overbye,
%       "Grid Structural Characteristics as Validation Criteria for
%       Synthetic Networks," IEEE Transactions on Power Systems,
%       vol. 32, no. 4, pp. 3258-3265, July 2017.
%       doi: 10.1109/TPWRS.2016.2616385
%
%   This is a synthetic power system model that does not represent the
%   actual grid. It was developed as part of the US ARPA-E GRID DATA
%   research project and contains no CEII.
%
%   One-line diagrams and other data formats available at:
%       https://electricgrids.engr.tamu.edu
%
%   August 9, 2018

%   Created from ACTIVSg2000_AUG-09-2018.pwb, saved by
%   PowerWorld Simulator, version 21, build date August 30, 2018,
%   then by MATPOWER 6.

%   MATPOWER
%   Copyright (c) 2017-2018 by A.B. Birchfield, T. Xu, K.M. Gegner, K.S. Shetye,
%   and T.J. Overbye
%   Licensed under the Creative Commons Attribution 4.0 International license,
%   https://creativecommons.org/licenses/by/4.0/

%% MATPOWER Case Format : Version 2
mpc.version = '2';

%%-----  Power Flow Data  -----%%
%% system MVA base
mpc.baseMVA = 100;

%% bus data
%	bus_i	type	Pd	Qd	Gs	Bs	area	Vm	Va	baseKV	zone	Vmax	Vmin	lam_P	lam_Q	mu_Vmax	mu_Vmin
mpc.bus = [
	1001	1	20.78	5.89	0	0	1	0.9839336	-22.646338	115	9	1.1	0.9	25.7500	-3.4800	0.0000	0.0000;
	1002	1	15.41	4.37	0	0	1	1.0229021	-18.132001	115	9	1.1	0.9	84.2100	0.4900	0.0000	0.0000;
	1003	1	0	0	0	0	1	1.012931	-17.011695	115	9	1.1	0.9	-6.7400	0.1400	0.0000	0.0000;
	1004	2	0	0	0	0	1	1.017406	-18.848732	230	9	1.1	0.9	-7.0800	6.0300	0.0000	0.0000;
	1005	1	0	0	0	0	1	1.0101076	-16.099297	115	9	1.1	0.9	-52.9600	-29.6300	0.0000	0.0000;
	1006	2	0	0	0	0	1	1.0036973	-13.943433	13.8	9	1.1	0.9	-50.4400	0.0000	0.0000	0.0000;
	1007	1	7.01	1.99	0	0.08	1	1.0300037	-18.50223	115	9	1.1	0.9	73.7600	0.0000	0.0000	0.0000;
	1008	1	0	0	0	0	1	1.0242318	-8.750765	115	9	1.1	0.9	-680.6900	29.8600	0.0000	0.0000;
	1009	2	0	0	0	0	1	1.0142528	-5.487293	13.8	9	1.1	0.9	-680.3200	29.7600	0.0000	0.0000;
	1010	1	0	0	0	-2.19	1	1.0300037	-16.859272	115	9	1.1	0.9	86.1300	0.0000	0.0000	0.0000;
	1011	2	0	0	0	0	1	1.0302222	-15.111129	22	9	1.1	0.9	86.0200	0.0000	0.0000	0.0000;
	1012	1	2.99	0.85	0	9.5	1	1.0168192	-25.304621	115	9	1.1	0.9	-344.5900	36.1000	0.0000	0.0000;
	1013	1	29.23	8.28	0	0	1	1.0095823	-15.448205	115	9	1.1	0.9	49.3400	-0.9800	0.0000	0.0000;
	1014	1	2.22	0.63	0	0	1	1.015959	-11.967074	115	9	1.1	0.9	71.8900	-7.3200	0.0000	0.0000;
	1015	1	7.51	2.13	0	0	1	1.0319511	-18.255397	115	9	1.1	0.9	81.0900	-0.1500	0.0000	0.0000;
	1016	1	2.89	0.82	0	30	1	1.0189172	-15.496608	115	9	1.1	0.9	-1.9100	-27.3300	0.0000	0.0000;
	1017	1	18.34	5.2	0	0	1	0.9904413	-21.41216	115	9	1.1	0.9	26.5600	-2.7100	0.0000	0.0000;
	1018	1	0.07	0.02	0	0	1	0.9965435	-20.156205	115	9	1.1	0.9	29.9100	-2.1500	0.0000	0.0000;
	1019	1	61.78	17.5	0	142.98	1	1.0040552	-22.237084	115	9	1.1	0.9	21.2500	-3.6000	0.0000	0.0000;
	1020	1	0	0	0	76.73	1	1.0259069	-15.252842	115	9	1.1	0.9	-53.9700	0.0000	0.0000	0.0000;
	1021	2	0	0	0	0	1	1.0016168	-8.668233	13.8	9	1.1	0.9	-52.3600	0.0000	0.0000	0.0000;
	1022	1	0	0	0	0	1	1.0156825	-16.129727	115	9	1.1	0.9	-6.0700	0.1900	0.0000	0.0000;
	1023	2	0	0	0	0	1	1.0100036	-7.245683	13.8	9	1.1	0.9	-5.9200	0.0000	0.0000	0.0000;
	1024	1	63.04	17.86	0	0	1	0.9971655	-19.133526	115	9	1.1	0.9	32.4600	-0.9900	0.0000	0.0000;
	1025	1	0	0	0	0	1	1.021133	-14.197091	115	9	1.1	0.9	-52.2600	-11.8400	0.0000	0.0000;
	1026	2	0	0	0	0	1	1.0000036	-4.707268	13.8	9	1.1	0.9	-49.5300	0.0000	0.0000	0.0000;
	1027	1	101.21	28.68	0	75	1	1.0139861	-25.752862	115	9	1.1	0.9	-5.6400	-2.4900	0.0000	0.0000;
	1028	1	10.01	2.84	0	0	1	1.0190224	-17.633912	115	9	1.1	0.9	-4.8900	0.5000	0.0000	0.0000;
	1029	1	83.18	23.57	0	65.41	1	1.0300037	-24.955148	115	9	1.1	0.9	-0.1500	-0.6100	0.0000	0.0000;
	1030	1	24.63	6.98	0	0	1	1.0182991	-13.494046	115	9	1.1	0.9	99.1600	-10.0500	0.0000	0.0000;
	1031	1	9.25	2.62	0	0	1	1.0191923	-17.690257	115	9	1.1	0.9	61.7400	-0.0300	0.0000	0.0000;
	1032	1	0	0	0	0	1	1.0064914	-12.394114	115	9	1.1	0.9	132.8800	-43.5100	0.0000	0.0000;
	1033	2	0	0	0	50	1	1.0259109	-16.949237	230	9	1.1	0.9	51.5300	-22.1400	0.0000	0.0000;
	1034	1	0	0	0	0	1	1.0064769	-14.328033	115	9	1.1	0.9	-27.5400	-36.4900	0.0000	0.0000;
	1035	2	0	0	0	0	1	1.0000036	-11.038753	13.8	9	1.1	0.9	-23.3600	0.0000	0.0000	0.0000;
	1036	1	13.6	3.85	0	0	1	1.000559	-12.598627	115	9	1.1	0.9	107.4400	-21.8600	0.0000	0.0000;
	1037	1	102.24	28.97	0	0	1	0.9813726	-22.48228	115	9	1.1	0.9	27.0800	-3.0000	0.0000	0.0000;
	1038	1	0	0	0	0	1	1.0200949	-7.759505	115	9	1.1	0.9	110.7900	-14.8600	0.0000	0.0000;
	1039	2	0	0	0	0	1	1.0000035	-2.38994	22	9	1.1	0.9	112.0800	0.0000	0.0000	0.0000;
	1040	1	44.36	12.57	0	0	1	0.995842	-20.396949	115	9	1.1	0.9	29.6800	-1.7100	0.0000	0.0000;
	1041	1	0	0	0	0	1	1.0049175	-15.121136	115	9	1.1	0.9	-1038.7500	23.7600	0.0000	0.0000;
	1042	1	0	0	0	0	1	1.0049175	-15.121136	13.8	9	1.1	0.9	-1038.7500	23.7600	0.0000	0.0000;
	1043	2	0	0	0	0	1	1.0000036	-11.883763	13.8	9	1.1	0.9	-1037.8800	0.0000	0.0000	0.0000;
	1044	1	14.68	4.16	0	0	1	1.0151811	-25.876036	115	9	1.1	0.9	-141.5500	-40.2700	0.0000	0.0000;
	1045	1	98.56	27.93	0	0	1	0.9827629	-24.352257	115	9	1.1	0.9	18.0500	-3.5000	0.0000	0.0000;
	1046	1	11.08	3.14	0	12	1	1.0281129	-22.494317	115	9	1.1	0.9	-423.4200	31.5500	0.0000	0.0000;
	1047	1	0	0	0	0	1	1.0086095	-13.372118	115	9	1.1	0.9	47.2400	-1.2800	0.0000	0.0000;
	1048	1	0	0	0	0	1	1.0086095	-13.372118	18	9	1.1	0.9	47.2400	-1.2800	0.0000	0.0000;
	1049	1	0	0	0	0	1	1.0086095	-13.372118	18	9	1.1	0.9	47.2400	-1.2800	0.0000	0.0000;
	1050	2	0	0	0	0	1	1.0000036	-8.317495	18	9	1.1	0.9	47.1700	0.0000	0.0000	0.0000;
	1051	2	0	0	0	0	1	1.0000036	-6.84264	18	9	1.1	0.9	47.0500	0.0000	0.0000	0.0000;
	1052	2	0	0	0	0	1	1.0009878	-9.168399	18	9	1.1	0.9	47.1300	0.0000	0.0000	0.0000;
	1053	1	0	0	0	0	1	1.0257297	-17.34203	230	9	1.1	0.9	46.3800	-0.3200	0.0000	0.0000;
	1054	1	14.99	4.25	0	0	1	1.0125102	-22.284887	115	9	1.1	0.9	-18.5800	0.2400	0.0000	0.0000;
	1055	1	3.98	1.13	0	0	1	1.0056314	-18.059023	115	9	1.1	0.9	-8.0700	-0.0300	0.0000	0.0000;
	1056	1	0	0	0	56.13	1	1.0300037	-21.836825	115	9	1.1	0.9	-20.8400	0.0000	0.0000	0.0000;
	1057	1	0	0	0	0	1	1.0300037	-21.836825	18	9	1.1	0.9	-20.8400	0.0000	0.0000	0.0000;
	1058	1	13.46	3.81	0	0	1	1.0257559	-11.359509	115	9	1.1	0.9	-585.8000	13.3000	0.0000	0.0000;
	1059	1	0	0	0	0	1	1.0257559	-11.359509	22	9	1.1	0.9	-585.8000	13.3000	0.0000	0.0000;
	1060	1	0	0	0	0	1	1.0257559	-11.359509	22	9	1.1	0.9	-585.8000	13.3000	0.0000	0.0000;
	1061	1	0	0	0	0	1	1.011891	-17.239365	115	9	1.1	0.9	-60.9200	-23.1300	0.0000	0.0000;
	1062	1	0	0	0	0	1	1.011891	-17.239365	13.8	9	1.1	0.9	-60.9200	-23.1300	0.0000	0.0000;
	1063	1	0	0	0	0	1	1.011891	-17.239365	13.8	9	1.1	0.9	-60.9200	-23.1300	0.0000	0.0000;
	1064	1	123.76	35.07	0	0	1	0.9768367	-24.054482	115	9	1.1	0.9	23.2500	-3.5400	0.0000	0.0000;
	1065	1	0	0	0	0	1	1.0078425	-14.9558	115	9	1.1	0.9	-2026.4900	113.3100	0.0000	0.0000;
	1066	2	0	0	0	0	1	1.0000036	-7.440687	13.8	9	1.1	0.9	-2023.9500	0.0000	0.0000	0.0000;
	1067	1	101.55	28.77	0	0	1	1.0018217	-15.690254	115	9	1.1	0.9	-45.3700	-60.7700	0.0000	0.0000;
	1068	1	59.4	16.83	0	0	1	0.9876132	-16.454991	115	9	1.1	0.9	37.4700	-15.8100	0.0000	0.0000;
	1069	1	0	0	0	0	1	1.0272175	-8.876951	115	9	1.1	0.9	-619.5200	14.7100	0.0000	0.0000;
	1070	2	0	0	0	0	1	1.0400036	-4.382542	13.8	9	1.1	0.9	-617.1200	0.0000	0.0000	0.0000;
	1071	1	91.46	25.91	0	0	1	0.9912743	-21.394129	115	9	1.1	0.9	27.6900	-3.3500	0.0000	0.0000;
	1072	2	0	0	0	0	1	1.0100037	-12.054718	18	9	1.1	0.9	28.0300	0.0000	0.0000	0.0000;
	1073	2	0	0	0	0	1	1.0100037	-5.661534	18	9	1.1	0.9	28.3400	0.0000	0.0000	0.0000;
	1074	2	0	0	0	0	1	1.0100037	-7.70557	18	9	1.1	0.9	28.2000	0.0000	0.0000	0.0000;
	1075	2	0	0	0	0	1	1.0100037	-10.463225	18	9	1.1	0.9	28.1600	0.0000	0.0000	0.0000;
	1076	1	0	0	0	0	1	0.9912743	-21.394129	18	9	1.1	0.9	27.6900	-3.3500	0.0000	0.0000;
	1077	1	0	0	0	0	1	0.9912743	-21.394129	18	9	1.1	0.9	27.6900	-3.3500	0.0000	0.0000;
	1078	2	0	0	0	0	1	1.0100037	-10.982473	18	9	1.1	0.9	28.1900	0.0000	0.0000	0.0000;
	1079	2	0	0	0	0	1	1.0198409	-38.334204	500	9	1.1	0.9	38.0200	-10.2300	0.0000	0.0000;
	1080	2	0	0	0	0	1	1.0100037	-10.401045	18	9	1.1	0.9	28.0600	0.0000	0.0000	0.0000;
	1081	1	0	0	0	79.77	1	1.0300036	-18.68991	230	9	1.1	0.9	46.2600	0.0000	0.0000	0.0000;
	1082	2	0	0	0	0	1	1.0233299	-6.05054	115	9	1.1	0.9	-589.2600	7.3400	0.0000	0.0000;
	1083	1	39.95	11.32	0	26.15	1	1.0227241	-9.981271	115	9	1.1	0.9	102.1700	-13.7100	0.0000	0.0000;
	1084	2	0	0	0	0	1	1.0283078	-16.471192	115	9	1.1	0.9	-42.6500	-7.5000	0.0000	0.0000;
	1085	1	21.3	6.03	0	0	1	1.011558	-15.327359	115	9	1.1	0.9	44.1000	-0.9300	0.0000	0.0000;
	1086	1	39.67	11.24	0	30	1	1.0186846	-17.567109	115	9	1.1	0.9	47.0000	-1.1800	0.0000	0.0000;
	1087	1	0.91	0.26	0	14.05	1	1.0300036	-16.230416	115	9	1.1	0.9	-514.2000	0.0000	0.0000	0.0000;
	1088	2	0	0	0	0	1	1.0000036	-11.910186	115	9	1.1	0.9	82.0500	0.0000	0.0000	0.0000;
	1089	1	40.6	11.5	0	0	1	0.9866587	-21.244278	115	9	1.1	0.9	-12.4400	-0.2700	0.0000	0.0000;
	1090	2	0	0	0	0	1	1.0200037	-16.064038	115	9	1.1	0.9	34.4400	0.0000	0.0000	0.0000;
	1091	1	11.62	3.29	0	0	1	1.0327141	-30.810235	161	9	1.1	0.9	-23.2600	-0.7600	0.0000	0.0000;
	2001	1	48.36	13.7	0	0	2	1.0028305	-59.60226	161	11	1.1	0.9	141.9600	14.2400	0.0000	0.0000;
	2002	1	0	0	0	0	2	1.0127504	-61.189054	500	11	1.1	0.9	148.2000	16.9700	0.0000	0.0000;
	2003	1	0	0	0	0	2	1.0114428	-63.443341	161	11	1.1	0.9	155.9200	19.8300	0.0000	0.0000;
	2004	1	0	0	0	0	2	1.0127504	-61.189054	13.8	11	1.1	0.9	148.2000	16.9700	0.0000	0.0000;
	2005	1	0	0	0	0	2	1.0127504	-61.189054	13.8	11	1.1	0.9	148.2000	16.9700	0.0000	0.0000;
	2006	1	0	0	0	0	2	1.0127504	-61.189054	13.8	11	1.1	0.9	148.2000	16.9700	0.0000	0.0000;
	2007	1	9.54	2.7	0	0	2	1.0037001	-59.372996	161	11	1.1	0.9	144.5600	16.5900	0.0000	0.0000;
	2008	1	8.06	2.28	0	0	2	1.0195642	-32.538822	161	10	1.1	0.9	6.8600	-1.0900	0.0000	0.0000;
	2009	1	39.14	11.09	0	120	2	1.0240415	-44.929252	161	11	1.1	0.9	19.7100	0.0000	0.0000	0.0000;
	2010	1	56.81	16.09	0	30.17	2	1.0300037	-36.203466	161	10	1.1	0.9	-47.2000	0.0000	0.0000	0.0000;
	2011	1	0	0	0	0	2	1.0391574	-31.780334	500	10	1.1	0.9	24.3600	-0.3500	0.0000	0.0000;
	2012	1	0	0	0	0	2	1.0281418	-29.554483	161	10	1.1	0.9	21.8000	-0.7200	0.0000	0.0000;
	2013	2	0	0	0	0	2	1.0308001	-29.441672	18	10	1.1	0.9	24.3700	-0.3600	0.0000	0.0000;
	2014	1	25.43	7.2	0	0	2	1.0192746	-33.128426	161	10	1.1	0.9	-1.8700	-0.8300	0.0000	0.0000;
	2015	1	4.69	1.33	0	0	2	1.0119269	-62.94927	161	11	1.1	0.9	247.0500	17.4400	0.0000	0.0000;
	2016	1	69.27	19.63	0	0	2	1.0110365	-69.563089	161	11	1.1	0.9	2322.9100	545.8200	0.0000	0.0000;
	2017	1	0	0	0	-200	2	1.0309429	-31.944266	500	10	1.1	0.9	21.4800	0.1900	0.0000	0.0000;
	2018	1	0	0	0	0	2	1.0285229	-31.154853	161	10	1.1	0.9	21.6700	-0.1000	0.0000	0.0000;
	2019	1	0	0	0	0	2	1.0309429	-31.944266	20	10	1.1	0.9	21.4800	0.1900	0.0000	0.0000;
	2020	1	47.97	13.59	0	0	2	0.9971221	-44.577474	161	11	1.1	0.9	25.6900	4.2600	0.0000	0.0000;
	2021	1	0	0	0	0	2	1.0147857	-56.329248	500	11	1.1	0.9	135.3500	9.9500	0.0000	0.0000;
	2022	1	11.56	3.28	0	0	2	1.0110382	-58.260249	161	11	1.1	0.9	138.8400	13.0800	0.0000	0.0000;
	2023	2	0	0	0	0	2	1.0200037	-54.766915	13.8	11	1.1	0.9	134.8100	0.0000	0.0000	0.0000;
	2024	2	0	0	0	0	2	1.0200037	-54.102087	13.8	11	1.1	0.9	134.6600	0.0000	0.0000	0.0000;
	2025	1	39.62	11.23	0	0	2	0.9957092	-43.814611	161	11	1.1	0.9	17.8400	1.5300	0.0000	0.0000;
	2026	1	18.57	5.26	0	0	2	1.0269597	-30.76094	161	10	1.1	0.9	23.8600	-0.4700	0.0000	0.0000;
	2027	1	3.55	1.01	0	0	2	1.0033184	-60.032422	161	11	1.1	0.9	143.7200	14.9800	0.0000	0.0000;
	2028	1	14.24	4.03	0	0	2	0.9973652	-46.944103	161	11	1.1	0.9	44.1300	10.6900	0.0000	0.0000;
	2029	1	3.2	0.91	0	0	2	1.0258493	-32.521904	161	10	1.1	0.9	-8.6900	-0.5600	0.0000	0.0000;
	2030	1	47.15	13.36	0	0	2	0.9899978	-63.651835	161	11	1.1	0.9	163.8000	24.6200	0.0000	0.0000;
	2031	1	5.77	1.63	0	0	2	1.0274656	-29.477812	161	10	1.1	0.9	-81.8900	7.2400	0.0000	0.0000;
	2032	1	3.35	0.95	0	0	2	1.0056747	-58.769309	161	11	1.1	0.9	142.6200	15.3300	0.0000	0.0000;
	2033	1	13.57	3.85	0	0	2	0.9926513	-65.160443	161	11	1.1	0.9	172.6100	26.2800	0.0000	0.0000;
	2034	1	5.34	1.51	0	0	2	1.0087755	-68.886605	161	11	1.1	0.9	2456.8200	590.2500	0.0000	0.0000;
	2035	1	4.68	1.33	0	0	2	1.0225087	-30.410783	161	10	1.1	0.9	-98.5100	10.2600	0.0000	0.0000;
	2036	1	41.59	11.78	0	0	2	1.0010787	-44.178555	161	11	1.1	0.9	20.6100	1.7700	0.0000	0.0000;
	2037	1	3.5	0.99	0	0	2	1.0231762	-63.290496	161	11	1.1	0.9	275.4100	12.4300	0.0000	0.0000;
	2038	1	2.6	0.74	0	0	2	1.0084005	-63.914513	161	11	1.1	0.9	159.8400	21.4800	0.0000	0.0000;
	2039	1	5.56	1.58	0	0	2	0.9953598	-60.323988	161	11	1.1	0.9	168.9500	23.3000	0.0000	0.0000;
	2040	1	15.9	4.51	0	0	2	1.0085073	-58.929562	161	11	1.1	0.9	140.7400	13.7500	0.0000	0.0000;
	2041	1	0	0	0	0	2	1.0289976	-27.374918	161	10	1.1	0.9	21.8900	-0.5400	0.0000	0.0000;
	2042	2	0	0	0	0	2	1.0204143	-24.804568	18	10	1.1	0.9	21.9000	-2.8900	0.0000	0.0000;
	2043	1	4.24	1.2	0	0	2	1.0095614	-69.195156	161	11	1.1	0.9	2400.3300	573.9300	0.0000	0.0000;
	2044	1	27.4	7.76	0	0	2	1.018029	-65.016518	161	11	1.1	0.9	261.0300	18.8300	0.0000	0.0000;
	2045	1	22.61	6.4	0	0	2	0.9965663	-45.116654	161	11	1.1	0.9	29.4400	5.7000	0.0000	0.0000;
	2046	1	22.13	6.27	0	0	2	1.0083263	-68.498314	161	11	1.1	0.9	2515.8800	603.8800	0.0000	0.0000;
	2047	1	14.96	4.24	0	0	2	1.0102323	-64.342317	161	11	1.1	0.9	1395.5700	363.4200	0.0000	0.0000;
	2048	1	6.42	1.82	0	0	2	1.031688	-31.522443	161	10	1.1	0.9	-50.4400	2.9400	0.0000	0.0000;
	2049	1	11.57	3.28	0	0	2	1.0212137	-40.667536	161	10	1.1	0.9	-0.7900	2.0600	0.0000	0.0000;
	2050	1	3.66	1.04	0	0	2	0.9955969	-62.848806	161	11	1.1	0.9	156.1600	20.5300	0.0000	0.0000;
	2051	1	17.85	5.06	0	0	2	0.9932948	-53.824107	161	11	1.1	0.9	119.2700	25.2600	0.0000	0.0000;
	2052	1	24.84	7.04	0	0	2	1.0197355	-31.658607	161	10	1.1	0.9	14.1300	-1.1100	0.0000	0.0000;
	2053	1	29.13	8.25	0	0	2	0.993578	-59.003536	161	11	1.1	0.9	109.2800	18.7400	0.0000	0.0000;
	2054	1	0	0	0	0	2	0.9992403	-42.825425	500	11	1.1	0.9	19.4700	0.9900	0.0000	0.0000;
	2055	1	49.62	14.06	0	0	2	0.9990468	-43.652909	161	11	1.1	0.9	20.7500	1.9800	0.0000	0.0000;
	2056	1	0	0	0	0	2	0.9992403	-42.825425	18	11	1.1	0.9	19.4700	0.9900	0.0000	0.0000;
	2057	2	0	0	0	0	2	0.9900036	-38.424	18	11	1.1	0.9	19.3300	0.0000	0.0000	0.0000;
	2058	1	0	0	0	0	2	1.0292536	-26.946807	161	10	1.1	0.9	22.1100	-0.5300	0.0000	0.0000;
	2059	2	0	0	0	0	2	1.0192676	-23.60635	13.8	10	1.1	0.9	22.0900	-0.5300	0.0000	0.0000;
	2060	1	3.8	1.08	0	0	2	0.9987303	-61.567396	161	11	1.1	0.9	151.9700	19.2900	0.0000	0.0000;
	2061	1	0	0	0	0	2	1.0241813	-37.153069	161	10	1.1	0.9	-16.0700	0.8800	0.0000	0.0000;
	2062	2	0	0	0	0	2	1.0200037	-34.856437	18	10	1.1	0.9	-16.0600	0.0000	0.0000	0.0000;
	2063	1	65.62	18.59	0	40	2	1.0094256	-67.860557	161	11	1.1	0.9	2558.9800	612.1200	0.0000	0.0000;
	2064	1	10.05	2.85	0	0	2	1.0042757	-59.897232	161	11	1.1	0.9	145.0500	16.1800	0.0000	0.0000;
	2065	1	78.36	22.2	0	100	2	1.0266022	-65.248986	161	11	1.1	0.9	317.7700	0.0000	0.0000	0.0000;
	2066	1	7.11	2.02	0	0	2	1.0205541	-27.500251	161	10	1.1	0.9	-119.1700	10.1000	0.0000	0.0000;
	2067	1	53.97	15.29	0	0	2	0.9938774	-43.737026	161	11	1.1	0.9	13.7100	1.0900	0.0000	0.0000;
	2068	1	5.76	1.63	0	0	2	1.0000156	-41.705083	161	11	1.1	0.9	-3.0800	-0.2200	0.0000	0.0000;
	2069	1	21.92	6.21	0	120	2	1.0256589	-68.742467	161	11	1.1	0.9	211.3000	0.0000	0.0000	0.0000;
	2070	1	0	0	0	0	2	1.0020167	-41.28671	161	11	1.1	0.9	-9.2800	-0.1900	0.0000	0.0000;
	2071	2	0	0	0	0	2	1.0000036	-37.610519	18	11	1.1	0.9	-9.2200	0.0000	0.0000	0.0000;
	2072	1	9.71	2.75	0	0	2	1.0193101	-66.865499	161	11	1.1	0.9	196.2700	48.1600	0.0000	0.0000;
	2073	1	0	0	0	0	2	1.0206805	-24.994746	161	10	1.1	0.9	-134.8900	8.3800	0.0000	0.0000;
	2074	1	0	0	0	0	2	1.0103706	-23.14277	115	10	1.1	0.9	-187.9600	4.7300	0.0000	0.0000;
	2075	1	0	0	0	0	2	1.0103706	-23.14277	115	10	1.1	0.9	-187.9600	4.7300	0.0000	0.0000;
	2076	2	0	0	0	0	2	1.0259186	-24.097157	24	10	1.1	0.9	-134.9500	8.3600	0.0000	0.0000;
	2077	1	0	0	0	0	2	1.0234359	-60.875623	161	11	1.1	0.9	244.4700	11.6100	0.0000	0.0000;
	2078	2	0	0	0	0	2	1.0200037	-57.562196	13.8	11	1.1	0.9	242.7000	0.0000	0.0000	0.0000;
	2079	1	4.48	1.27	0	0	2	1.0315049	-34.430602	161	10	1.1	0.9	-48.5300	1.3600	0.0000	0.0000;
	2080	1	16.93	4.8	0	0	2	0.9988796	-57.174905	161	11	1.1	0.9	160.8500	24.6900	0.0000	0.0000;
	2081	1	4.46	1.26	0	0	2	1.0029399	-64.71821	161	11	1.1	0.9	166.9900	24.3400	0.0000	0.0000;
	2082	1	59.03	16.73	0	0	2	1.0054662	-44.525835	161	11	1.1	0.9	20.4200	1.5300	0.0000	0.0000;
	2083	2	0	0	0	0	2	1.0200037	-42.953793	20	11	1.1	0.9	20.3100	1.4800	0.0000	0.0000;
	2084	1	0	0	0	0	2	1.0054662	-44.525835	20	11	1.1	0.9	20.4200	1.5300	0.0000	0.0000;
	2085	1	0	0	0	0	2	1.0054662	-44.525835	20	11	1.1	0.9	20.4200	1.5300	0.0000	0.0000;
	2086	1	2.19	0.62	0	0	2	0.9966171	-59.135878	161	11	1.1	0.9	165.9200	23.9800	0.0000	0.0000;
	2087	1	7.9	2.24	0	0	2	1.0234535	-27.335879	161	10	1.1	0.9	-109.6900	9.0500	0.0000	0.0000;
	2088	1	0	0	0	0	2	1.0010231	-41.405037	161	11	1.1	0.9	-5.3400	-0.2400	0.0000	0.0000;
	2089	2	0	0	0	0	2	1.0000036	-37.804418	24	11	1.1	0.9	-5.2800	0.0000	0.0000	0.0000;
	2090	1	2.42	0.69	0	0	2	1.0037195	-60.651608	161	11	1.1	0.9	146.6600	16.3500	0.0000	0.0000;
	2091	1	17.05	4.83	0	0	2	1.0250043	-33.796582	161	10	1.1	0.9	-72.4200	7.2000	0.0000	0.0000;
	2092	1	24.11	6.83	0	0	2	1.0082536	-66.176092	161	11	1.1	0.9	2569.9700	618.2600	0.0000	0.0000;
	2093	1	0	0	0	0	2	1.0287779	-30.313058	161	10	1.1	0.9	21.7400	-0.4300	0.0000	0.0000;
	2094	1	0	0	0	0	2	1.0287779	-30.313058	13.8	10	1.1	0.9	21.7400	-0.4300	0.0000	0.0000;
	2095	1	0	0	0	0	2	1.0287779	-30.313058	13.8	10	1.1	0.9	21.7400	-0.4300	0.0000	0.0000;
	2096	1	0	0	0	-68.51	2	1.0299997	-27.645227	500	10	1.1	0.9	9.9700	0.6400	0.0000	0.0000;
	2097	1	0	0	0	0	2	1.0286671	-27.098475	230	10	1.1	0.9	7.2600	0.5800	0.0000	0.0000;
	2098	1	0	0	0	0	2	1.033775	-30.224427	161	10	1.1	0.9	-18.4100	-1.6600	0.0000	0.0000;
	2099	2	0	0	0	0	2	1.0295321	-27.504092	18	10	1.1	0.9	9.9600	0.0000	0.0000	0.0000;
	2100	2	0	0	0	0	2	1.0207998	-25.039206	18	10	1.1	0.9	9.9300	0.0000	0.0000	0.0000;
	2101	1	0	0	0	0	2	1.0123899	-62.293898	500	11	1.1	0.9	150.8700	18.3100	0.0000	0.0000;
	2102	1	0	0	0	0	2	1.0131827	-63.73776	161	11	1.1	0.9	176.2200	27.2000	0.0000	0.0000;
	2103	1	0	0	0	0	2	1.0123899	-62.293898	20	11	1.1	0.9	150.8700	18.3100	0.0000	0.0000;
	2104	1	0	0	0	0	2	1.0123899	-62.293898	20	11	1.1	0.9	150.8700	18.3100	0.0000	0.0000;
	2105	1	0	0	0	0	2	1.0123899	-62.293898	20	11	1.1	0.9	150.8700	18.3100	0.0000	0.0000;
	2106	1	14.4	4.08	0	0	2	0.9910979	-65.805332	161	11	1.1	0.9	178.0800	28.5300	0.0000	0.0000;
	2107	1	74.15	21.01	0	0	2	1.0078222	-64.606397	161	11	1.1	0.9	192.4900	27.8800	0.0000	0.0000;
	2108	1	2.14	0.61	0	0	2	1.0034813	-43.407819	161	10	1.1	0.9	-182.5800	88.3600	0.0000	0.0000;
	2109	1	33.81	9.58	0	0	2	1.010155	-46.060351	161	11	1.1	0.9	29.5300	4.9400	0.0000	0.0000;
...
];

%% generator data
%	bus	Pg	Qg	Qmax	Qmin	Vg	mBase	status	Pmax	Pmin	Pc1	Pc2	Qc1min	Qc1max	Qc2min	Qc2max	ramp_agc	ramp_10	ramp_30	ramp_q	apf	mu_Pmax	mu_Pmin	mu_Qmax	mu_Qmin
mpc.gen = [
	1004	158.25	-30.38	44.94	-30.38	1.01	253.2	1	158.25	158.25	0	0	0	0	0	0	0	0	0	0	211	0	0	0	0;
	1006	25.73	-4.94	7.31	-4.94	1	41.16	1	25.73	25.73	0	0	0	0	0	0	0	0	0	0	34.3	0	0	0	0;
	1009	61.87	-11.88	17.57	-11.88	1	99	1	61.87	61.87	0	0	0	0	0	0	0	0	0	0	82.5	0	0	0	0;
	1011	9.97	0	0	0	1	12	1	10	3	0	0	0	0	0	0	0	0	0	0	10	0	0	0	0;
	1021	149.63	-28.73	42.49	-28.73	1	239.4	1	149.63	149.63	0	0	0	0	0	0	0	0	0	0	199.5	0	0	0	0;
	1023	135	-0.55	38.34	-25.92	1.01	216	1	135	135	0	0	0	0	0	0	0	0	0	0	180	0	0	0	0;
	1026	93.15	-6.13	26.45	-17.88	1	149.04	1	93.15	93.15	0	0	0	0	0	0	0	0	0	0	124.2	0	0	0	0;
	1033	208.5	-40.03	59.21	-40.03	1	333.6	1	208.5	208.5	0	0	0	0	0	0	0	0	0	0	278	0	0	0	0;
	1035	67.5	-9.15	19.17	-12.96	1	108	1	67.5	67.5	0	0	0	0	0	0	0	0	0	0	90	0	0	0	0;
	1039	110.63	-20.76	31.42	-21.24	1	177	1	110.63	110.63	0	0	0	0	0	0	0	0	0	0	147.5	0	0	0	0;
	1043	44.1	-3.61	12.52	-8.47	1	70.56	1	44.1	44.1	0	0	0	0	0	0	0	0	0	0	58.8	0	0	0	0;
	1050	89.15	-7.52	45.5	-9.92	1	107.28	1	89.4	26.82	0	0	0	0	0	0	0	0	0	0	89.4	0	0	0	0;
	1051	89.15	-5.5	45.5	-9.92	1	107.28	1	89.4	26.82	0	0	0	0	0	0	0	0	0	0	89.4	0	0	0	0;
	1052	89.15	-9.92	45.5	-9.92	1	107.28	1	89.4	26.82	0	0	0	0	0	0	0	0	0	0	89.4	0	0	0	0;
	1066	106.88	-3.74	30.35	-20.52	1	171	1	106.88	106.88	0	0	0	0	0	0	0	0	0	0	142.5	0	0	0	0;
	1070	120.38	18.58	34.19	-23.11	1.04	192.6	1	120.38	120.38	0	0	0	0	0	0	0	0	0	0	160.5	0	0	0	0;
	1072	191.6	25.79	97.8	-21.33	1.01	230.56	1	192.13	57.64	0	0	0	0	0	0	0	0	0	0	192.13	0	0	0	0;
	1073	191.6	32.88	97.8	-21.33	1.01	230.56	1	192.13	57.64	0	0	0	0	0	0	0	0	0	0	192.13	0	0	0	0;
	1074	191.6	29.18	97.8	-21.33	1.01	230.56	1	192.13	57.64	0	0	0	0	0	0	0	0	0	0	192.13	0	0	0	0;
	1075	191.6	30.03	97.8	-21.33	1.01	230.56	1	192.13	57.64	0	0	0	0	0	0	0	0	0	0	192.13	0	0	0	0;
	1078	95.24	15.89	48.61	-10.6	1.01	114.6	1	95.5	28.65	0	0	0	0	0	0	0	0	0	0	95.5	0	0	0	0;
	1079	95.24	-10.6	48.61	-10.6	1.01	114.6	1	95.5	28.65	0	0	0	0	0	0	0	0	0	0	95.5	0	0	0	0;
	1080	95.24	12.77	48.61	-10.6	1.01	114.6	1	95.5	28.65	0	0	0	0	0	0	0	0	0	0	95.5	0	0	0	0;
	1082	112.5	-21.6	31.95	-21.6	1	180	1	112.5	112.5	0	0	0	0	0	0	0	0	0	0	150	0	0	0	0;
	1084	86.62	24.6	24.6	-16.63	1.04	138.6	1	86.62	86.62	0	0	0	0	0	0	0	0	0	0	115.5	0	0	0	0;
	1088	56.25	-3.26	15.97	-10.8	1	90	1	56.25	56.25	0	0	0	0	0	0	0	0	0	0	75	0	0	0	0;
	1090	141.37	31.15	40.15	-27.14	1.02	226.2	1	141.37	141.37	0	0	0	0	0	0	0	0	0	0	152.5	0	0	0	0;
	2013	150.45	-28.89	42.73	-28.89	1	240.72	1	150.45	150.45	0	0	0	0	0	0	0	0	0	0	200.6	0	0	0	0;
	2023	83.1	15.44	42.42	-9.25	1.02	100	1	83.33	25	0	0	0	0	0	0	0	0	0	0	83.33	0	0	0	0;
	2024	166.21	22.7	84.83	-18.5	1.02	200	1	166.67	50	0	0	0	0	0	0	0	0	0	0	166.67	0	0	0	0;
	2042	59.7	-11.46	16.95	-11.46	1.01	95.52	1	59.7	59.7	0	0	0	0	0	0	0	0	0	0	79.6	0	0	0	0;
	2057	573.59	-57.99	335.52	-87.84	0.99	864	1	720	216	0	0	0	0	0	0	0	0	0	0	720	0	0	0	0;
	2059	60	-11.52	17.04	-11.52	1	96	1	60	60	0	0	0	0	0	0	0	0	0	0	80	0	0	0	0;
	2062	101.55	-12.3	28.84	-19.5	1.02	162.48	1	101.55	101.55	0	0	0	0	0	0	0	0	0	0	135.4	0	0	0	0;
	2071	112.5	-2.46	31.95	-21.6	1	180	1	112.5	112.5	0	0	0	0	0	0	0	0	0	0	150	0	0	0	0;
	2076	22.5	6.39	6.39	-4.32	1.04	36	1	22.5	22.5	0	0	0	0	0	0	0	0	0	0	30	0	0	0	0;
	2078	84.38	-4.82	23.96	-16.2	1.02	135	1	84.38	84.38	0	0	0	0	0	0	0	0	0	0	112.5	0	0	0	0;
	2083	19.94	10.07	10.18	-2.22	1.02	24	1	20	6	0	0	0	0	0	0	0	0	0	0	20	0	0	0	0;
	2089	50.7	-0.29	14.4	-9.73	1	81.12	1	50.7	50.7	0	0	0	0	0	0	0	0	0	0	67.6	0	0	0	0;
	2099	7.5	-1.44	2.13	-1.44	1.02	12	1	7.5	7.5	0	0	0	0	0	0	0	0	0	0	10	0	0	0	0;
	2100	112.5	-21.6	31.95	-21.6	1.02	180	1	112.5	112.5	0	0	0	0	0	0	0	0	0	0	150	0	0	0	0;
	2115	184.21	-20.5	94.02	-20.5	1	221.66	1	184.72	55.41	0	0	0	0	0	0	0	0	0	0	184.72	0	0	0	0;
	2116	184.21	-20.5	94.02	-20.5	1	221.66	1	184.72	55.41	0	0	0	0	0	0	0	0	0	0	184.72	0	0	0	0;
	2117	184.21	-20.5	94.02	-20.5	1	221.66	1	184.72	55.41	0	0	0	0	0	0	0	0	0	0	184.72	0	0	0	0;
	2118	184.21	-20.5	94.02	-20.5	1	221.66	1	184.72	55.41	0	0	0	0	0	0	0	0	0	0	184.72	0	0	0	0;
	2119	184.21	-20.5	94.02	-20.5	1	221.66	1	184.72	55.41	0	0	0	0	0	0	0	0	0	0	184.72	0	0	0	0;
	2120	184.21	-4.83	94.02	-20.5	1.01	221.66	1	184.72	55.41	0	0	0	0	0	0	0	0	0	0	184.72	0	0	0	0;
	2123	136.28	-26.16	38.7	-26.16	1	218.04	1	136.28	136.28	0	0	0	0	0	0	0	0	0	0	181.7	0	0	0	0;
	2127	216.45	-1	61.47	-41.56	1.04	346.32	1	216.45	216.45	0	0	0	0	0	0	0	0	0	0	288.6	0	0	0	0;
	3004	28.13	-5.4	7.99	-5.4	1	45	1	28.13	28.13	0	0	0	0	0	0	0	0	0	0	37.5	0	0	0	0;
	3017	127.13	-0.17	36.1	-24.41	1.01	203.4	1	127.13	127.13	0	0	0	0	0	0	0	0	0	0	169.5	0	0	0	0;
	3020	112.5	1.34	31.95	-21.6	1.03	180	1	112.5	112.5	0	0	0	0	0	0	0	0	0	0	150	0	0	0	0;
	3028	150	36.96	42.6	-28.8	1.04	240	1	150	150	0	0	0	0	0	0	0	0	0	0	200	0	0	0	0;
	3034	97.87	17.14	27.8	-18.79	1.03	156.6	1	97.87	97.87	0	0	0	0	0	0	0	0	0	0	130.5	0	0	0	0;
	3039	156.75	43.36	44.52	-30.1	1.04	250.8	1	156.75	156.75	0	0	0	0	0	0	0	0	0	0	209	0	0	0	0;
	3048	180.75	51.33	51.33	-34.7	1.04	289.2	1	180.75	180.75	0	0	0	0	0	0	0	0	0	0	241	0	0	0	0;
	3055	183.88	35.81	52.22	-35.3	1.04	294.2	1	183.88	183.88	0	0	0	0	0	0	0	0	0	0	245.17	0	0	0	0;
	3056	183.88	24.15	52.22	-35.3	1.04	294.2	1	183.88	183.88	0	0	0	0	0	0	0	0	0	0	245.17	0	0	0	0;
	3057	183.88	22.53	52.22	-35.3	1.04	294.2	1	183.88	183.88	0	0	0	0	0	0	0	0	0	0	245.17	0	0	0	0;
	3060	124.22	13.18	35.28	-23.85	1.04	198.75	1	124.22	124.22	0	0	0	0	0	0	0	0	0	0	165.63	0	0	0	0;
	3061	124.22	13.94	35.28	-23.85	1.04	198.75	1	124.22	124.22	0	0	0	0	0	0	0	0	0	0	165.63	0	0	0	0;
	3062	124.22	19.46	35.28	-23.85	1.04	198.75	1	124.22	124.22	0	0	0	0	0	0	0	0	0	0	165.63	0	0	0	0;
	3063	124.22	14.87	35.28	-23.85	1.04	198.75	1	124.22	124.22	0	0	0	0	0	0	0	0	0	0	165.63	0	0	0	0;
	3065	60.37	-11.59	17.15	-11.59	1	96.6	1	60.37	60.37	0	0	0	0	0	0	0	0	0	0	80.5	0	0	0	0;
	3068	112.5	25.59	31.95	-21.6	1.04	180	1	112.5	112.5	0	0	0	0	0	0	0	0	0	0	150	0	0	0	0;
	3071	127.65	-24.51	36.25	-24.51	1	204.24	1	127.65	127.65	0	0	0	0	0	0	0	0	0	0	170.2	0	0	0	0;
	3074	74.85	-7.14	21.26	-14.37	1	119.76	1	74.85	74.85	0	0	0	0	0	0	0	0	0	0	99.8	0	0	0	0;
	3081	186.75	33.97	53.04	-35.86	1.04	298.8	1	186.75	186.75	0	0	0	0	0	0	0	0	0	0	249	0	0	0	0;
	3084	174.37	-8.93	49.52	-33.48	1	279	1	174.37	174.37	0	0	0	0	0	0	0	0	0	0	232.5	0	0	0	0;
	3086	56.25	-1.69	15.97	-10.8	1	90	1	56.25	56.25	0	0	0	0	0	0	0	0	0	0	75	0	0	0	0;
	3092	150	18.47	42.6	-28.8	1.04	240	1	150	150	0	0	0	0	0	0	0	0	0	0	200	0	0	0	0;
	3095	90.45	19.62	25.69	-17.37	1.04	144.72	1	90.45	90.45	0	0	0	0	0	0	0	0	0	0	120.6	0	0	0	0;
	3098	120	17.91	34.08	-23.04	1.04	192	1	120	120	0	0	0	0	0	0	0	0	0	0	160	0	0	0	0;
	3105	44.5	-0.74	17.07	-0.74	1	18	1	44.5	44.5	0	0	0	0	0	0	0	0	0	0	15	0	0	0	0;
	3106	53.02	-2.69	62.48	-2.69	1	65.88	1	53.02	53.02	0	0	0	0	0	0	0	0	0	0	54.9	0	0	0	0;
	3110	63	11.92	17.89	-12.1	1.04	100.8	1	63	63	0	0	0	0	0	0	0	0	0	0	84	0	0	0	0;
	3112	56.1	-3.04	15.93	-10.77	1	89.76	1	56.1	56.1	0	0	0	0	0	0	0	0	0	0	74.8	0	0	0	0;
	3113	56.1	-2.35	15.93	-10.77	1	89.76	1	56.1	56.1	0	0	0	0	0	0	0	0	0	0	74.8	0	0	0	0;
	3117	47.25	-5.09	13.42	-9.07	1	75.6	1	47.25	47.25	0	0	0	0	0	0	0	0	0	0	63	0	0	0	0;
	3118	90	-8.53	25.56	-17.28	1	144	1	90	90	0	0	0	0	0	0	0	0	0	0	120	0	0	0	0;
	3120	29.7	0	0	0	1	47.52	1	29.7	29.7	0	0	0	0	0	0	0	0	0	0	39.6	0	0	0	0;
	3122	147.75	-13.3	41.96	-28.37	1	236.4	1	147.75	147.75	0	0	0	0	0	0	0	0	0	0	197	0	0	0	0;
	3127	101.25	-19.44	28.76	-19.44	1	162	1	101.25	101.25	0	0	0	0	0	0	0	0	0	0	135	0	0	0	0;
	3129	94.88	-18.22	26.94	-18.22	1	151.8	1	94.88	94.88	0	0	0	0	0	0	0	0	0	0	126.5	0	0	0	0;
	3131	85.5	22.85	24.28	-16.42	1.02	136.8	1	85.5	85.5	0	0	0	0	0	0	0	0	0	0	114	0	0	0	0;
	3137	75.9	21.56	21.56	-14.57	1.03	121.44	1	75.9	75.9	0	0	0	0	0	0	0	0	0	0	101.2	0	0	0	0;
	3141	68.62	-13.18	19.49	-13.18	1	109.8	1	68.62	68.62	0	0	0	0	0	0	0	0	0	0	91.5	0	0	0	0;
	4010	151.2	11.42	42.94	-29.03	1.03	241.92	1	151.2	151.2	0	0	0	0	0	0	0	0	0	0	201.6	0	0	0	0;
	4026	408.86	44.49	191.06	-50.02	1.03	492	1	410	123	0	0	0	0	0	0	0	0	0	0	410	0	0	0	0;
	4030	460.57	-34.65	290.04	-75.93	1.01	746.88	1	622.4	186.72	0	0	0	0	0	0	0	0	0	0	622.4	0	0	0	0;
	4045	93.4	7.47	35.86	-1.54	1.02	37.8	1	93.4	93.4	0	0	0	0	0	0	0	0	0	0	31.5	0	0	0	0;
	4046	28.5	1.96	10.94	-0.47	1.02	11.52	1	28.5	28.5	0	0	0	0	0	0	0	0	0	0	9.6	0	0	0	0;
	4047	27.48	3.41	75.1	-3.23	1.02	79.2	1	27.48	27.48	0	0	0	0	0	0	0	0	0	0	66	0	0	0	0;
	4050	150	-21.93	42.6	-28.8	1	240	1	150	150	0	0	0	0	0	0	0	0	0	0	200	0	0	0	0;
	4052	44.08	22.5	22.5	-4.91	1.04	53.04	1	44.2	13.26	0	0	0	0	0	0	0	0	0	0	44.2	0	0	0	0;
	4058	99.6	17.45	73.3	-15.98	1.03	172.8	1	144	43.2	0	0	0	0	0	0	0	0	0	0	144	0	0	0	0;
	4059	84.08	18.42	73.3	-15.98	1.03	172.8	1	144	43.2	0	0	0	0	0	0	0	0	0	0	144	0	0	0	0;
	4060	124.4	14.84	73.3	-15.98	1.03	172.8	1	144	43.2	0	0	0	0	0	0	0	0	0	0	144	0	0	0	0;
	4061	148.88	19.5	87.72	-19.13	1.03	206.8	1	172.33	51.7	0	0	0	0	0	0	0	0	0	0	172.33	0	0	0	0;
	4062	171.85	17.02	87.72	-19.13	1.03	206.8	1	172.33	51.7	0	0	0	0	0	0	0	0	0	0	172.33	0	0	0	0;
	4063	124.75	19.69	87.72	-19.13	1.03	206.8	1	172.33	51.7	0	0	0	0	0	0	0	0	0	0	172.33	0	0	0	0;
	4065	46.87	13.41	23.92	-5.22	1.02	56.4	1	47	14.1	0	0	0	0	0	0	0	0	0	0	47	0	0	0	0;
	4076	175.84	23.56	89.75	-19.57	1.03	211.6	1	176.33	52.9	0	0	0	0	0	0	0	0	0	0	176.33	0	0	0	0;
	4077	97.06	17.97	89.75	-19.57	1.03	211.6	1	176.33	52.9	0	0	0	0	0	0	0	0	0	0	176.33	0	0	0	0;
	4082	242.73	29.65	123.89	-27.02	1.04	292.08	1	243.4	73.02	0	0	0	0	0	0	0	0	0	0	243.4	0	0	0	0;
	4083	242.73	30.42	123.89	-27.02	1.04	292.08	1	243.4	73.02	0	0	0	0	0	0	0	0	0	0	243.4	0	0	0	0;
	4084	242.73	46.21	123.89	-27.02	1.04	292.08	1	243.4	73.02	0	0	0	0	0	0	0	0	0	0	243.4	0	0	0	0;
	4085	168.05	48.8	179.17	-39.07	1.04	422.4	1	352	105.6	0	0	0	0	0	0	0	0	0	0	352	0	0	0	0;
	4091	23.43	2.45	10.95	-2.87	1.01	28.2	1	23.5	7.05	0	0	0	0	0	0	0	0	0	0	23.5	0	0	0	0;
	4093	27.92	1.3	13.05	-3.42	1.01	33.6	1	28	8.4	0	0	0	0	0	0	0	0	0	0	28	0	0	0	0;
	4094	27.92	4.86	13.05	-3.42	1.01	33.6	1	28	8.4	0	0	0	0	0	0	0	0	0	0	28	0	0	0	0;
	4095	27.92	2.14	13.05	-3.42	1.01	33.6	1	28	8.4	0	0	0	0	0	0	0	0	0	0	28	0	0	0	0;
	4097	27.92	1.87	13.05	-3.42	1.01	33.6	1	28	8.4	0	0	0	0	0	0	0	0	0	0	28	0	0	0	0;
	4105	135	23.76	38.34	-25.92	1.01	216	1	135	135	0	0	0	0	0	0	0	0	0	0	180	0	0	0	0;
	4115	131.43	28.4	67.09	-14.63	1.04	158.16	1	131.8	39.54	0	0	0	0	0	0	0	0	0	0	131.8	0	0	0	0;
	4116	123.76	25.71	67.09	-14.63	1.04	158.16	1	131.8	39.54	0	0	0	0	0	0	0	0	0	0	131.8	0	0	0	0;
	4134	10.21	-3.73	17.1	-3.73	1	40.32	1	33.6	10.08	0	0	0	0	0	0	0	0	0	0	33.6	0	0	0	0;
	4135	10.21	-3.73	17.1	-3.73	1	40.32	1	33.6	10.08	0	0	0	0	0	0	0	0	0	0	33.6	0	0	0	0;
	4136	10.21	-3.73	17.1	-3.73	1	40.32	1	33.6	10.08	0	0	0	0	0	0	0	0	0	0	33.6	0	0	0	0;
	4142	141	27.34	40.04	-27.07	1.04	225.6	1	141	141	0	0	0	0	0	0	0	0	0	0	188	0	0	0	0;
	4153	212.4	60.32	60.32	-40.78	1.04	339.84	1	212.4	212.4	0	0	0	0	0	0	0	0	0	0	283.2	0	0	0	0;
	4160	197.22	64.86	100.66	-21.95	1.03	237.32	1	197.77	59.33	0	0	0	0	0	0	0	0	0	0	197.77	0	0	0	0;
	4161	87.79	27.19	100.66	-21.95	1.03	237.32	1	197.77	59.33	0	0	0	0	0	0	0	0	0	0	197.77	0	0	0	0;
	4162	112.47	26.13	100.66	-21.95	1.03	237.32	1	197.77	59.33	0	0	0	0	0	0	0	0	0	0	197.77	0	0	0	0;
	4166	150.75	-28.94	42.81	-28.94	1	241.2	1	150.75	150.75	0	0	0	0	0	0	0	0	0	0	201	0	0	0	0;
	4177	112.5	-0.14	31.95	-21.6	1.04	180	1	112.5	112.5	0	0	0	0	0	0	0	0	0	0	150	0	0	0	0;
	4181	150.07	42.62	42.62	-28.81	1.04	240.12	1	150.07	150.07	0	0	0	0	0	0	0	0	0	0	200.1	0	0	0	0;
	4183	152.25	43.24	43.24	-29.23	1.03	243.6	1	152.25	152.25	0	0	0	0	0	0	0	0	0	0	203	0	0	0	0;
	4192	1144.05	148.57	762.83	-166.37	1.02	1798.44	1	1498.71	449.61	0	0	0	0	0	0	0	0	0	0	75	0	0	0	0;
	4194	151.2	42.94	42.94	-29.03	1.02	241.92	1	151.2	151.2	0	0	0	0	0	0	0	0	0	0	201.6	0	0	0	0;
	4195	69	-13.25	19.6	-13.25	1	110.4	1	69	69	0	0	0	0	0	0	0	0	0	0	92	0	0	0	0;
	5020	90	-16.77	25.56	-17.28	1	144	1	90	90	0	0	0	0	0	0	0	0	0	0	120	0	0	0	0;
	5037	93.74	67.41	157.01	-34.24	1.02	370.16	1	308.47	92.54	0	0	0	0	0	0	0	0	0	0	308.47	0	0	0	0;
	5038	93.74	65.5	157.01	-34.24	1.02	370.16	1	308.47	92.54	0	0	0	0	0	0	0	0	0	0	308.47	0	0	0	0;
	5039	93.74	148.79	157.01	-34.24	1.02	370.16	1	308.47	92.54	0	0	0	0	0	0	0	0	0	0	308.47	0	0	0	0;
	5040	93.74	49.29	157.01	-34.24	1.02	370.16	1	308.47	92.54	0	0	0	0	0	0	0	0	0	0	308.47	0	0	0	0;
	5041	93.74	71.22	157.01	-34.24	1.02	370.16	1	308.47	92.54	0	0	0	0	0	0	0	0	0	0	308.47	0	0	0	0;
	5042	93.74	61.19	157.01	-34.24	1.02	370.16	1	308.47	92.54	0	0	0	0	0	0	0	0	0	0	308.47	0	0	0	0;
	5051	84.47	43.11	43.11	-9.4	1.02	101.64	1	84.7	25.41	0	0	0	0	0	0	0	0	0	0	84.7	0	0	0	0;
	5058	251.17	-19.5	161.53	-35.23	1	380.82	1	317.35	95.2	0	0	0	0	0	0	0	0	0	0	317.35	0	0	0	0;
	5065	10.57	5.4	5.4	-1.18	1.03	12.72	1	10.6	3.18	0	0	0	0	0	0	0	0	0	0	10.6	0	0	0	0;
	5067	437.06	182.7	223.08	-48.65	1.03	525.92	1	438.27	131.48	0	0	0	0	0	0	0	0	0	0	438.27	0	0	0	0;
	5068	437.06	172.57	223.08	-48.65	1.03	525.92	1	438.27	131.48	0	0	0	0	0	0	0	0	0	0	438.27	0	0	0	0;
	5069	437.06	162.04	223.08	-48.65	1.03	525.92	1	438.27	131.48	0	0	0	0	0	0	0	0	0	0	438.27	0	0	0	0;
	5166	126.15	64.39	64.39	-14.04	1.04	151.8	1	126.5	37.95	0	0	0	0	0	0	0	0	0	0	126.5	0	0	0	0;
	5167	1.6	0.81	0.81	-0.18	1.04	1.92	1	1.6	0.48	0	0	0	0	0	0	0	0	0	0	1.6	0	0	0	0;
	5170	45	-8.64	12.78	-8.64	1	72	1	45	45	0	0	0	0	0	0	0	0	0	0	60	0	0	0	0;
	5198	112.5	-21.6	31.95	-21.6	1	180	1	112.5	112.5	0	0	0	0	0	0	0	0	0	0	150	0	0	0	0;
	5206	207.11	30.67	126.57	-27.6	1.01	298.4	1	248.67	74.6	0	0	0	0	0	0	0	0	0	0	248.67	0	0	0	0;
	5207	180.01	54.69	126.57	-27.6	1.01	298.4	1	248.67	74.6	0	0	0	0	0	0	0	0	0	0	248.67	0	0	0	0;
	5208	180.01	43.85	126.57	-27.6	1.01	298.4	1	248.67	74.6	0	0	0	0	0	0	0	0	0	0	248.67	0	0	0	0;
	5238	168.75	-32.4	47.93	-32.4	1	270	1	168.75	168.75	0	0	0	0	0	0	0	0	0	0	225	0	0	0	0;
	5243	112.5	-21.6	31.95	-21.6	1	180	1	112.5	112.5	0	0	0	0	0	0	0	0	0	0	150	0	0	0	0;
	5262	1211.63	43	447.12	-99.63	1.01	1458	1	1215	364.5	0	0	0	0	0	0	0	0	0	0	1215	0	0	0	0;
	5263	1024.01	32.88	447.12	-99.63	1.01	1458	1	1215	364.5	0	0	0	0	0	0	0	0	0	0	1215	0	0	0	0;
	5281	266.99	-29.72	136.28	-29.72	1	321.28	1	267.73	80.32	0	0	0	0	0	0	0	0	0	0	267.73	0	0	0	0;
	5282	266.99	-29.72	136.28	-29.72	1	321.28	1	267.73	80.32	0	0	0	0	0	0	0	0	0	0	267.73	0	0	0	0;
	5298	114.68	58.53	58.53	-12.76	1.04	138	1	115	34.5	0	0	0	0	0	0	0	0	0	0	115	0	0	0	0;
	5299	114.68	58.53	58.53	-12.76	1.04	138	1	115	34.5	0	0	0	0	0	0	0	0	0	0	115	0	0	0	0;
	5300	114.68	58.53	58.53	-12.76	1.04	138	1	115	34.5	0	0	0	0	0	0	0	0	0	0	115	0	0	0	0;
	5301	82.47	42.09	42.09	-9.18	1.04	99.24	1	82.7	24.81	0	0	0	0	0	0	0	0	0	0	82.7	0	0	0	0;
	5302	462.46	167.57	236.05	-51.48	1.04	556.5	1	463.75	139.13	0	0	0	0	0	0	0	0	0	0	463.75	0	0	0	0;
	5303	462.46	218.7	236.05	-51.48	1.04	556.5	1	463.75	139.13	0	0	0	0	0	0	0	0	0	0	463.75	0	0	0	0;
	5319	79.87	4.91	133.77	-29.17	1.01	315.36	1	262.8	78.84	0	0	0	0	0	0	0	0	0	0	262.8	0	0	0	0;
	5321	79.87	4.99	133.77	-29.17	1.01	315.36	1	262.8	78.84	0	0	0	0	0	0	0	0	0	0	262.8	0	0	0	0;
	5324	283.28	144.59	144.59	-31.53	1.04	340.88	1	284.07	85.22	0	0	0	0	0	0	0	0	0	0	284.07	0	0	0	0;
	5325	283.28	144.59	144.59	-31.53	1.04	340.88	1	284.07	85.22	0	0	0	0	0	0	0	0	0	0	284.07	0	0	0	0;
	5326	283.28	144.59	144.59	-31.53	1.04	340.88	1	284.07	85.22	0	0	0	0	0	0	0	0	0	0	284.07	0	0	0	0;
	5342	8.4	3.2	3.2	-0.14	1.04	3.36	1	8.4	8.4	0	0	0	0	0	0	0	0	0	0	2.8	0	0	0	0;
	5343	207.5	60.28	79.67	-3.43	1.04	84	1	207.5	207.5	0	0	0	0	0	0	0	0	0	0	70	0	0	0	0;
	5360	1005.21	-38.58	469.73	-122.98	1.01	1209.6	1	1008	302.4	0	0	0	0	0	0	0	0	0	0	1008	0	0	0	0;
	5363	10.37	-1.15	5.29	-1.15	1	12.48	1	10.4	3.12	0	0	0	0	0	0	0	0	0	0	10.4	0	0	0	0;
	5364	212.74	-23.68	108.59	-23.68	1	256	1	213.33	64	0	0	0	0	0	0	0	0	0	0	213.33	0	0	0	0;
	5365	212.74	-12.23	108.59	-23.68	1	256	1	213.33	64	0	0	0	0	0	0	0	0	0	0	213.33	0	0	0	0;
	5366	212.74	-10.74	108.59	-23.68	1	256	1	213.33	64	0	0	0	0	0	0	0	0	0	0	213.33	0	0	0	0;
	5367	212.74	-10.68	108.59	-23.68	1	256	1	213.33	64	0	0	0	0	0	0	0	0	0	0	213.33	0	0	0	0;
	5368	212.74	-18.86	108.59	-23.68	1	256	1	213.33	64	0	0	0	0	0	0	0	0	0	0	213.33	0	0	0	0;
	5369	212.74	-9.95	108.59	-23.68	1	256	1	213.33	64	0	0	0	0	0	0	0	0	0	0	213.33	0	0	0	0;
	5382	63.52	106.38	106.38	-23.2	1.04	250.8	1	209	62.7	0	0	0	0	0	0	0	0	0	0	209	0	0	0	0;
	5383	63.52	106.38	106.38	-23.2	1.04	250.8	1	209	62.7	0	0	0	0	0	0	0	0	0	0	209	0	0	0	0;
	5399	124.2	35.27	35.27	-23.85	1.04	198.72	1	124.2	124.2	0	0	0	0	0	0	0	0	0	0	165.6	0	0	0	0;
	5403	89.15	45.5	45.5	-9.92	1.03	107.28	1	89.4	26.82	0	0	0	0	0	0	0	0	0	0	89.4	0	0	0	0;
	5404	77.23	45.5	45.5	-9.92	1.03	107.28	1	89.4	26.82	0	0	0	0	0	0	0	0	0	0	89.4	0	0	0	0;
	5405	84.77	45.5	45.5	-9.92	1.03	107.28	1	89.4	26.82	0	0	0	0	0	0	0	0	0	0	89.4	0	0	0	0;
	5406	89.15	45.5	45.5	-9.92	1.03	107.28	1	89.4	26.82	0	0	0	0	0	0	0	0	0	0	89.4	0	0	0	0;
	5415	121.66	-13.54	62.1	-13.54	1	146.4	1	122	36.6	0	0	0	0	0	0	0	0	0	0	122	0	0	0	0;
	5416	121.66	-13.54	62.1	-13.54	1	146.4	1	122	36.6	0	0	0	0	0	0	0	0	0	0	122	0	0	0	0;
	5417	121.66	-13.54	62.1	-13.54	1	146.4	1	122	36.6	0	0	0	0	0	0	0	0	0	0	122	0	0	0	0;
	5418	118.47	-13.19	60.47	-13.19	1	142.56	1	118.8	35.64	0	0	0	0	0	0	0	0	0	0	118.8	0	0	0	0;
	5419	118.47	-13.19	60.47	-13.19	1	142.56	1	118.8	35.64	0	0	0	0	0	0	0	0	0	0	118.8	0	0	0	0;
	5423	12.37	-1.38	6.31	-1.38	1	14.88	1	12.4	3.72	0	0	0	0	0	0	0	0	0	0	12.4	0	0	0	0;
	5444	858.22	36.76	438.04	-95.52	1.01	1032.72	1	860.6	258.18	0	0	0	0	0	0	0	0	0	0	289	0	0	0	0;
	6006	212.41	67.91	108.42	-23.64	1.04	255.6	1	213	63.9	0	0	0	0	0	0	0	0	0	0	213	0	0	0	0;
	6008	197.78	59.65	100.95	-22.01	1.04	238	1	198.33	59.5	0	0	0	0	0	0	0	0	0	0	198.33	0	0	0	0;
	6009	197.78	37.33	100.95	-22.01	1.04	238	1	198.33	59.5	0	0	0	0	0	0	0	0	0	0	198.33	0	0	0	0;
	6010	197.78	50.24	100.95	-22.01	1.04	238	1	198.33	59.5	0	0	0	0	0	0	0	0	0	0	198.33	0	0	0	0;
	6041	0	20.48	20.48	-0.88	1.04	21.6	1	0	0	0	0	0	0	0	0	0	0	0	0	18	0	0	0	0;
	6042	0	47.53	122.91	-5.29	1.04	129.6	1	0	0	0	0	0	0	0	0	0	0	0	0	108	0	0	0	0;
	6051	57.24	29.22	29.22	-6.37	1.04	68.88	1	57.4	17.22	0	0	0	0	0	0	0	0	0	0	57.4	0	0	0	0;
	6053	57.24	29.22	29.22	-6.37	1.04	68.88	1	57.4	17.22	0	0	0	0	0	0	0	0	0	0	57.4	0	0	0	0;
...
];

%% branch data
%	fbus	tbus	r	x	b	rateA	rateB	rateC	ratio	angle	status	angmin	angmax	Pf	Qf	Pt	Qt	mu_Sf	mu_St	mu_angmin	mu_angmax
mpc.branch = [
	1001	1064	0.00524	0.0358	0.00609	221	0	0	0	0	1	0	0	67.5000	10.1400	-67.2500	-9.0000	0.0000	0.0000	0.0000	0.0000;
	1001	1064	0.00524	0.0358	0.00609	221	0	0	0	0	1	0	0	67.5000	10.1400	-67.2500	-9.0000	0.0000	0.0000	0.0000	0.0000;
	1001	1071	0.00435	0.02808	0.00536	221	0	0	0	0	1	0	0	-77.8900	-13.0900	78.1700	14.3700	0.0000	0.0000	0.0000	0.0000;
	1001	1071	0.00435	0.02808	0.00536	221	0	0	0	0	1	0	0	-77.8900	-13.0900	78.1700	14.3700	0.0000	0.0000	0.0000	0.0000;
	1002	1007	0.07776	0.46693	0.06336	98	0	0	0	0	1	0	0	1.1700	-5.0600	-1.1600	-1.6000	0.0000	0.0000	0.0000	0.0000;
	1010	1002	0.05552	0.1357	0.01777	98	0	0	0	0	1	0	0	16.7300	-2.2100	-16.5800	0.6900	0.0000	0.0000	0.0000	0.0000;
	1004	1003	0.0045	0.11582	0	250	0	0	1	0	1	0	0	-28.3100	5.4900	28.3500	-4.5600	0.0000	0.0000	0.0000	0.0000;
	1022	1003	0.00485	0.02012	0.00341	221	0	0	0	0	1	0	0	77.6900	-4.4100	-77.4000	5.2400	0.0000	0.0000	0.0000	0.0000;
	1055	1003	0.01574	0.03782	0.00513	98	0	0	0	0	1	0	0	-48.6900	1.0400	49.0600	-0.6800	0.0000	0.0000	0.0000	0.0000;
	1004	3133	0.0042	0.03	0.055	523	0	0	0	0	1	0	0	186.5600	-35.8700	-185.1100	40.5600	0.0000	0.0000	0.0000	0.0000;
	1006	1005	0.00602	0.14707	0	42	0	0	1	0	1	0	0	25.7300	-4.9400	-25.6900	5.9400	0.0000	0.0000	0.0000	0.0000;
	1025	1005	0.01842	0.0821	0.01204	149	0	0	0	0	1	0	0	42.7800	4.1800	-42.4500	-3.9600	0.0000	0.0000	0.0000	0.0000;
	1005	1061	0.00599	0.02484	0.00422	221	0	0	0	0	1	0	0	75.9000	-24.9600	-75.5300	26.0800	0.0000	0.0000	0.0000	0.0000;
	1067	1005	0.01711	0.04181	0.00548	102.9	0	0	0	0	1	0	0	7.8600	-23.2800	-7.7600	22.9800	0.0000	0.0000	0.0000	0.0000;
	1007	1015	0.06224	0.37375	0.05072	98	0	0	0	0	1	0	0	-1.2800	-3.0100	1.2800	-2.3700	0.0000	0.0000	0.0000	0.0000;
	1031	1007	0.04803	0.27434	0.04123	98	0	0	0	0	1	0	0	4.5900	-6.9200	-4.5700	2.7100	0.0000	0.0000	0.0000	0.0000;
	1009	1008	0.00455	0.09471	0	120	0	0	1	0	1	0	0	61.8700	-11.8800	-61.6900	15.5300	0.0000	0.0000	0.0000	0.0000;
	1008	1032	0.04501	0.11002	0.01441	102.9	0	0	0	0	1	0	0	57.4600	-5.8500	-56.0300	7.8600	0.0000	0.0000	0.0000	0.0000;
	1008	1069	0.0083	0.03628	0.00553	149	0	0	0	0	1	0	0	4.2400	-9.6800	-4.2300	9.1400	0.0000	0.0000	0.0000	0.0000;
	1011	1010	0.00721	0.3246	0	46	0	0	1	0	1	0	0	9.9700	0.0000	-9.9700	0.3000	0.0000	0.0000	0.0000	0.0000;
	1010	1015	0.04703	0.28243	0.03833	98	0	0	0	0	1	0	0	8.8300	-4.1000	-8.7900	0.2500	0.0000	0.0000	0.0000	0.0000;
	1010	1030	0.0616	0.3699	0.0502	98	0	0	0	0	1	0	0	-15.5900	3.6800	15.7500	-7.9600	0.0000	0.0000	0.0000	0.0000;
	1012	1087	0.04934	0.20469	0.03473	149	0	0	0	0	1	0	0	-76.3000	16.4500	79.2400	-7.9000	0.0000	0.0000	0.0000	0.0000;
	3051	1012	0.0571	0.24977	0.03804	149	0	0	0	0	1	0	0	-70.3300	16.6400	73.3100	-7.4700	0.0000	0.0000	0.0000	0.0000;
	1013	1031	0.04509	0.27078	0.03675	98	0	0	0	0	1	0	0	13.9300	-7.4800	-13.8300	4.3000	0.0000	0.0000	0.0000	0.0000;
	1047	1013	0.00947	0.06117	0.01167	221	0	0	0	0	1	0	0	58.8200	-10.2100	-58.4900	11.1600	0.0000	0.0000	0.0000	0.0000;
	1086	1013	0.079	0.19311	0.02529	98	0	0	0	0	1	0	0	-15.0600	10.0100	15.3300	-11.9500	0.0000	0.0000	0.0000	0.0000;
	1014	1047	0.03566	0.14794	0.0251	149	0	0	0	0	1	0	0	17.2500	-0.2000	-17.1500	-1.9500	0.0000	0.0000	0.0000	0.0000;
	1014	1083	0.04105	0.18293	0.02682	149	0	0	0	0	1	0	0	-19.4700	-0.4300	19.6200	-1.6800	0.0000	0.0000	0.0000	0.0000;
	1016	1034	0.01828	0.10976	0.01489	98	0	0	0	0	1	0	0	-16.6400	13.7400	16.7200	-14.7500	0.0000	0.0000	0.0000	0.0000;
	1068	1016	0.02773	0.15837	0.0238	98	0	0	0	0	1	0	0	-13.6100	-18.2100	13.7500	16.5900	0.0000	0.0000	0.0000	0.0000;
	1018	1017	0.03227	0.07887	0.01033	98	0	0	0	0	1	0	0	26.3000	-3.2600	-26.0800	2.8000	0.0000	0.0000	0.0000	0.0000;
	1017	1029	0.03244	0.14188	0.02161	149	0	0	0	0	1	0	0	36.5200	-35.6500	-35.6900	37.1100	0.0000	0.0000	0.0000	0.0000;
	1037	1017	0.00752	0.03352	0.00491	221	0	0	0	0	1	0	0	-57.1200	-13.4700	57.3900	14.1900	0.0000	0.0000	0.0000	0.0000;
	1047	1017	0.036	0.156	0.024	150	0	0	0	0	1	0	0	88.9900	-3.7200	-86.1800	13.4700	0.0000	0.0000	0.0000	0.0000;
	1024	1018	0.01094	0.06572	0.00892	98	0	0	0	0	1	0	0	26.4500	-3.6600	-26.3700	3.2400	0.0000	0.0000	0.0000	0.0000;
	1019	1040	0.04978	0.20651	0.03504	149	0	0	0	0	1	0	0	-13.7300	5.7900	13.8500	-8.7900	0.0000	0.0000	0.0000	0.0000;
	1019	1045	0.01522	0.0372	0.00487	221	0	0	0	0	1	0	0	104.6400	16.2200	-102.9400	-12.5600	0.0000	0.0000	0.0000	0.0000;
	1019	1071	0.0044	0.028	0.0054	225	0	0	0	0	1	0	0	-43.9500	52.8500	44.1500	-52.0700	0.0000	0.0000	0.0000	0.0000;
	1071	1019	0.0044	0.028	0.0054	225	0	0	0	0	1	0	0	44.1500	-52.0700	-43.9500	52.8500	0.0000	0.0000	0.0000	0.0000;
	1019	1084	0.03	0.16	0.025	220	0	0	0	0	1	0	0	-64.7900	-1.0700	66.0400	5.1500	0.0000	0.0000	0.0000	0.0000;
	1021	1020	0.00327	0.07812	0	250	0	0	1	0	1	0	0	149.6300	-28.7300	-148.8700	46.8100	0.0000	0.0000	0.0000	0.0000;
	1025	1020	0.00828	0.03434	0.00583	149	0	0	0	0	1	0	0	50.0000	-26.0400	-49.7500	26.4700	0.0000	0.0000	0.0000	0.0000;
	1084	1020	0.01056	0.06337	0.0086	221	0	0	0	0	1	0	0	-33.7500	9.4400	33.8700	-9.6100	0.0000	0.0000	0.0000	0.0000;
	1020	3059	0.0189	0.06	0.006	300	0	0	0	0	1	0	0	62.9400	3.9800	-62.2300	-2.3400	0.0000	0.0000	0.0000	0.0000;
	1020	3130	0.00996	0.06938	0.01134	221	0	0	0	0	1	0	0	101.8200	13.1000	-100.8200	-7.3200	0.0000	0.0000	0.0000	0.0000;
	1023	1022	0.00535	0.11733	0	250	0	0	1	0	1	0	0	135.0000	-0.5500	-134.0500	21.5200	0.0000	0.0000	0.0000	0.0000;
	1022	1028	0.01433	0.09253	0.01765	221	0	0	0	0	1	0	0	28.1800	-8.5600	-28.0600	7.4900	0.0000	0.0000	0.0000	0.0000;
	1022	1028	0.01433	0.09253	0.01765	221	0	0	0	0	1	0	0	28.1800	-8.5600	-28.0600	7.4900	0.0000	0.0000	0.0000	0.0000;
	1024	1090	0.01414	0.06303	0.00924	149	0	0	0	0	1	0	0	-89.4900	-14.2000	90.6600	18.4600	0.0000	0.0000	0.0000	0.0000;
	1026	1025	0.0042	0.18046	0	200	0	0	1	0	1	0	0	93.1500	-6.1300	-92.7800	21.8600	0.0000	0.0000	0.0000	0.0000;
	1027	1045	0.02505	0.10957	0.01669	221	0	0	0	0	1	0	0	-14.7900	31.6900	15.1000	-31.9900	0.0000	0.0000	0.0000	0.0000;
	1056	1027	0.03121	0.0763	0.00999	250	0	0	0	0	1	0	0	88.7800	-12.0300	-86.4200	16.7500	0.0000	0.0000	0.0000	0.0000;
	1028	3109	0.00428	0.01875	0.00286	250	0	0	0	0	1	0	0	46.1100	-17.8200	-46.0100	17.9700	0.0000	0.0000	0.0000	0.0000;
	1029	1056	0.02054	0.11733	0.01763	221	0	0	0	0	1	0	0	-47.5000	8.7200	47.9500	-7.9900	0.0000	0.0000	0.0000	0.0000;
	1030	1038	0.07404	0.42285	0.06354	98	0	0	0	0	1	0	0	-23.6800	1.6500	24.1000	-5.8600	0.0000	0.0000	0.0000	0.0000;
	1083	1030	0.06537	0.37334	0.0561	98	0	0	0	0	1	0	0	16.8800	-4.1500	-16.7000	-0.6700	0.0000	0.0000	0.0000	0.0000;
	1033	1032	0.00283	0.06758	0	170	0	0	1	0	1	0	0	-119.7000	39.3200	120.1300	-29.1300	0.0000	0.0000	0.0000	0.0000;
	1032	1036	0.01956	0.11746	0.01594	98	0	0	0	0	1	0	0	3.8000	3.6500	-3.8000	-5.2100	0.0000	0.0000	0.0000	0.0000;
	1038	1032	0.045	0.11	0.015	155	0	0	0	0	1	0	0	70.1000	-13.7900	-67.9000	17.6200	0.0000	0.0000	0.0000	0.0000;
	1033	1081	0.003	0.031	0.059	548	0	0	0	0	1	0	0	101.4300	-24.8900	-101.1300	21.8300	0.0000	0.0000	0.0000	0.0000;
	1033	3050	0.0139	0.136	0.262	647	0	0	0	0	1	0	0	226.7700	-1.8300	-219.9600	40.9400	0.0000	0.0000	0.0000	0.0000;
	1035	1034	0.00438	0.08496	0	130	0	0	1	0	1	0	0	67.5000	-9.1500	-67.3000	13.0900	0.0000	0.0000	0.0000	0.0000;
	1067	1034	0.00795	0.04771	0.00647	98	0	0	0	0	1	0	0	-50.3700	-1.1100	50.5700	1.6600	0.0000	0.0000	0.0000	0.0000;
	1088	1036	0.02065	0.11793	0.01772	98	0	0	0	0	1	0	0	9.8200	-3.0200	-9.8000	1.3600	0.0000	0.0000	0.0000	0.0000;
	1037	1071	0.00669	0.04319	0.00824	300	0	0	0	0	1	0	0	-45.1100	-15.5000	45.2700	15.7100	0.0000	0.0000	0.0000	0.0000;
	1039	1038	0.00201	0.08591	0	200	0	0	1	0	1	0	0	110.6300	-20.7600	-110.3800	31.6500	0.0000	0.0000	0.0000	0.0000;
	1082	1038	0.01115	0.04969	0.00729	149	0	0	0	0	1	0	0	61.2700	-6.5300	-60.8700	7.5700	0.0000	0.0000	0.0000	0.0000;
	1083	1038	0.01	0.05	0.007	221	0	0	0	0	1	0	0	-76.4400	21.8700	77.0500	-19.5700	0.0000	0.0000	0.0000	0.0000;
	1040	1090	0.02991	0.13329	0.01955	149	0	0	0	0	1	0	0	-58.2100	-3.7800	59.2300	6.3600	0.0000	0.0000	0.0000	0.0000;
	1042	1041	0.00419	0.11123	0	145	0	0	1	0	1	0	0	0.0000	0.0000	0.0000	0.0000	0.0000	0.0000	0.0000	0.0000;
	1043	1041	0.003	0.12844	0	95	0	0	1	0	1	0	0	44.1000	-3.6100	-44.0400	6.1200	0.0000	0.0000	0.0000	0.0000;
	1065	1041	0.00386	0.02203	0.00331	147	0	0	0	0	1	0	0	15.1500	10.5800	-15.1400	-10.8400	0.0000	0.0000	0.0000	0.0000;
	1041	1067	0.00393	0.01722	0.00262	156.45	0	0	0	0	1	0	0	59.1800	4.7200	-59.0400	-4.3800	0.0000	0.0000	0.0000	0.0000;
	1044	3019	0.03857	0.17192	0.02521	149	0	0	0	0	1	0	0	46.6500	-18.4200	-45.7200	19.9000	0.0000	0.0000	0.0000	0.0000;
	3130	1044	0.02731	0.19029	0.03111	221	0	0	0	0	1	0	0	62.3900	-10.0400	-61.3300	14.2600	0.0000	0.0000	0.0000	0.0000;
	1045	1064	0.00545	0.03794	0.0062	221	0	0	0	0	1	0	0	-10.7200	16.6300	10.7400	-17.0600	0.0000	0.0000	0.0000	0.0000;
	1087	1046	0.03262	0.14269	0.02173	149	0	0	0	0	1	0	0	78.2100	-13.2400	-76.2900	19.3600	0.0000	0.0000	0.0000	0.0000;
	1046	3009	0.05654	0.23454	0.0398	149	0	0	0	0	1	0	0	65.2000	-9.8200	-62.8900	15.2000	0.0000	0.0000	0.0000	0.0000;
	1048	1047	0.00335	0.06576	0	390	0	0	1	0	1	0	0	0.0000	0.0000	-0.0000	0.0000	0.0000	0.0000	0.0000	0.0000;
	1049	1047	0.00276	0.11783	0	390	0	0	1	0	1	0	0	0.0000	0.0000	0.0000	0.0000	0.0000	0.0000	0.0000	0.0000;
	1050	1047	0.00313	0.09941	0	124	0	0	1	0	1	0	0	89.1500	-7.5200	-88.9000	15.4800	0.0000	0.0000	0.0000	0.0000;
	1051	1047	0.0056	0.1283	0	117	0	0	1	0	1	0	0	89.1500	-5.5000	-88.7100	15.7400	0.0000	0.0000	0.0000	0.0000;
	1052	1047	0.00368	0.0826	0	110	0	0	1	0	1	0	0	89.1500	-9.9200	-88.8600	16.5500	0.0000	0.0000	0.0000	0.0000;
	1053	1047	0.0023	0.08808	0	250	0	0	1	0	1	0	0	-80.6700	24.8600	80.8300	-18.9000	0.0000	0.0000	0.0000	0.0000;
	1047	1085	0.00947	0.06117	0.01167	221	0	0	0	0	1	0	0	54.9900	-13.0000	-54.6900	13.7200	0.0000	0.0000	0.0000	0.0000;
	1053	1081	0.003	0.03	0.06	548	0	0	0	0	1	0	0	80.6700	-24.8600	-80.4700	20.5100	0.0000	0.0000	0.0000	0.0000;
	1054	1056	0.02202	0.09633	0.01467	149	0	0	0	0	1	0	0	-12.0300	-16.3600	12.1200	15.1900	0.0000	0.0000	0.0000	0.0000;
	1089	1054	0.08737	0.21357	0.02796	98	0	0	0	0	1	0	0	3.1200	-14.5000	-2.9600	12.1100	0.0000	0.0000	0.0000	0.0000;
	1055	1089	0.04982	0.12179	0.01595	98	0	0	0	0	1	0	0	44.7100	-2.1700	-43.7200	3.0000	0.0000	0.0000	0.0000	0.0000;
	1057	1056	0.00315	0.1312	0	160	0	0	1	0	1	0	0	0.0000	0.0000	0.0000	0.0000	0.0000	0.0000	0.0000	0.0000;
	1056	1061	0.02267	0.12946	0.01945	150	0	0	0	0	1	0	0	-59.7200	26.4300	60.6500	-23.1800	0.0000	0.0000	0.0000	0.0000;
	1056	1065	0.02269	0.12962	0.01948	250	0	0	0	0	1	0	0	-89.1300	37.9500	91.1500	-28.4100	0.0000	0.0000	0.0000	0.0000;
	1059	1058	0.02655	0.46187	0	33	0	0	1	0	1	0	0	0.0000	0.0000	0.0000	0.0000	0.0000	0.0000	0.0000	0.0000;
	1060	1058	0.00894	0.38854	0	27	0	0	1	0	1	0	0	0.0000	0.0000	0.0000	0.0000	0.0000	0.0000	0.0000	0.0000;
	1069	1058	0.0074	0.05155	0.00843	221	0	0	0	0	1	0	0	87.4300	-8.1600	-86.8900	11.0400	0.0000	0.0000	0.0000	0.0000;
	1069	1058	0.0074	0.05155	0.00843	221	0	0	0	0	1	0	0	87.4300	-8.1600	-86.8900	11.0400	0.0000	0.0000	0.0000	0.0000;
	1058	1087	0.01573	0.10956	0.01791	221	0	0	0	0	1	0	0	80.1600	-12.9500	-79.1800	17.8900	0.0000	0.0000	0.0000	0.0000;
	1058	1087	0.01573	0.10956	0.01791	221	0	0	0	0	1	0	0	80.1600	-12.9500	-79.1800	17.8900	0.0000	0.0000	0.0000	0.0000;
	1062	1061	0.0163	0.31787	0	29	0	0	1	0	1	0	0	0.0000	0.0000	0.0000	0.0000	0.0000	0.0000	0.0000	0.0000;
	1063	1061	0.00567	0.10409	0	260	0	0	1	0	1	0	0	0.0000	0.0000	0.0000	0.0000	0.0000	0.0000	0.0000	0.0000;
	1061	3042	0.054	0.18	0.028	221	0	0	0	0	1	0	0	14.8800	-2.8900	-14.7700	0.4400	0.0000	0.0000	0.0000	0.0000;
	1066	1065	0.00508	0.12315	0	200	0	0	1	0	1	0	0	106.8800	-3.7400	-106.3000	17.8300	0.0000	0.0000	0.0000	0.0000;
	1088	1068	0.02962	0.16921	0.02543	98	0	0	0	0	1	0	0	46.4300	-0.2400	-45.7900	1.3800	0.0000	0.0000	0.0000	0.0000;
	1070	1069	0.00297	0.07	0	220	0	0	1	0	1	0	0	120.3800	18.5800	-119.9700	-8.9800	0.0000	0.0000	0.0000	0.0000;
	1082	1069	0.02137	0.0952	0.01396	149	0	0	0	0	1	0	0	51.2300	-15.0700	-50.6500	16.1700	0.0000	0.0000	0.0000	0.0000;
	1072	1071	0.00529	0.08551	0	240	0	0	1	0	1	0	0	191.6000	25.7900	-189.6700	5.5400	0.0000	0.0000	0.0000	0.0000;
	1073	1071	0.00499	0.14254	0	240	0	0	1	0	1	0	0	191.6000	32.8800	-189.7500	19.9300	0.0000	0.0000	0.0000	0.0000;
	1074	1071	0.00575	0.12453	0	240	0	0	1	0	1	0	0	191.6000	29.1800	-189.4900	16.6800	0.0000	0.0000	0.0000	0.0000;
	1075	1071	0.00373	0.09967	0	240	0	0	1	0	1	0	0	191.6000	30.0300	-190.2300	6.7200	0.0000	0.0000	0.0000	0.0000;
	1076	1071	0.00141	0.04937	0	230	0	0	1	0	1	0	0	0.0000	-0.0000	0.0000	0.0000	0.0000	0.0000	0.0000	0.0000;
	1077	1071	0.00641	0.12047	0	230	0	0	1	0	1	0	0	0.0000	0.0000	-0.0000	0.0000	0.0000	0.0000	0.0000	0.0000;
	1078	1071	0.00533	0.19087	0	137	0	0	1	0	1	0	0	95.2400	15.8900	-94.7500	1.5600	0.0000	0.0000	0.0000	0.0000;
	1079	1071	0.00013	0.046	0	2000	0	0	1	0	1	0	0	-639.8900	160.5000	640.4400	31.9900	0.0000	0.0000	0.0000	0.0000;
	1080	1071	0.01206	0.20208	0	136	0	0	1	0	1	0	0	95.2400	12.7700	-94.1500	5.5200	0.0000	0.0000	0.0000	0.0000;
	1081	1071	0.00167	0.0665	0	350	0	0	1	0	1	0	0	73.9400	59.8400	-73.8000	-54.1700	0.0000	0.0000	0.0000	0.0000;
	3048	1079	0.0013	0.015	1.02	2300	0	0	0	0	1	0	0	-365.8600	-1.0600	367.5700	-85.5500	0.0000	0.0000	0.0000	0.0000;
	3048	1079	0.0013	0.015	1.02	2300	0	0	0	0	1	0	0	-365.8600	-1.0600	367.5700	-85.5500	0.0000	0.0000	0.0000	0.0000;
	1081	3058	0.0091	0.089	0.171	548	0	0	0	0	1	0	0	107.6600	-17.5600	-106.6600	9.1600	0.0000	0.0000	0.0000	0.0000;
	1084	3130	0.02049	0.09131	0.01339	221	0	0	0	0	1	0	0	54.3300	10.0100	-53.7300	-8.7500	0.0000	0.0000	0.0000	0.0000;
	1085	1086	0.03392	0.14838	0.0226	149	0	0	0	0	1	0	0	24.8500	-11.1700	-24.6100	9.8800	0.0000	0.0000	0.0000	0.0000;
	1090	1085	0.02018	0.13786	0.02346	221	0	0	0	0	1	0	0	-8.5200	6.3400	8.5400	-8.5900	0.0000	0.0000	0.0000	0.0000;
	2029	1091	0.0389	0.17144	0.0798	187	0	0	0	0	1	0	0	-18.3800	-3.8600	18.5100	-4.0400	0.0000	0.0000	0.0000	0.0000;
	1091	2048	0.02193	0.09667	0.045	187	0	0	0	0	1	0	0	13.2800	-4.2300	-13.2500	-0.4000	0.0000	0.0000	0.0000	0.0000;
	2098	1091	0.00554	0.02443	0.01137	187	0	0	0	0	1	0	0	43.5100	-5.7600	-43.4100	4.9800	0.0000	0.0000	0.0000	0.0000;
	2022	2001	0.00839	0.03697	0.01721	187	0	0	0	0	1	0	0	66.0900	7.3200	-65.7300	-7.4600	0.0000	0.0000	0.0000	0.0000;
	2027	2001	0.00955	0.04062	0.02032	187	0	0	0	0	1	0	0	-17.3400	4.3300	17.3700	-6.2400	0.0000	0.0000	0.0000	0.0000;
	2003	2002	0.0003	0.01986	0	981	0	0	1	0	1	0	0	-202.8700	0.4000	202.9900	7.5900	0.0000	0.0000	0.0000	0.0000;
	2004	2002	0.00022	0.01466	0	635	0	0	1	0	1	0	0	-0.0000	0.0000	0.0000	-0.0000	0.0000	0.0000	0.0000	0.0000;
	2005	2002	0.00033	0.01714	0	645	0	0	1	0	1	0	0	-0.0000	0.0000	0.0000	-0.0000	0.0000	0.0000	0.0000	0.0000;
	2006	2002	0.00036	0.02679	0	636	0	0	1	0	1	0	0	0.0000	0.0000	-0.0000	-0.0000	0.0000	0.0000	0.0000	0.0000;
	2021	2002	0.00097	0.01175	0.78032	2295	0	0	0	0	1	0	0	740.0000	-52.2500	-734.8400	34.5500	0.0000	0.0000	0.0000	0.0000;
	2002	2101	0.00031	0.0037	0.24573	2020	0	0	0	0	1	0	0	531.8400	-42.1400	-530.9900	27.1800	0.0000	0.0000	0.0000	0.0000;
	2038	2003	0.00353	0.02067	0.01032	251	0	0	0	0	1	0	0	-41.8600	-8.0500	41.9300	7.3700	0.0000	0.0000	0.0000	0.0000;
	2003	2047	0.0013	0.0099	0.0052	310	0	0	0	0	1	0	0	160.9500	-7.7600	-160.6200	9.7400	0.0000	0.0000	0.0000	0.0000;
	2007	2114	0.00888	0.05207	0.026	251	0	0	0	0	1	0	0	-76.2500	-3.5100	76.7600	3.8800	0.0000	0.0000	0.0000	0.0000;
	2007	2122	0.00861	0.03661	0.01831	187	0	0	0	0	1	0	0	66.7100	0.8100	-66.3300	-1.0200	0.0000	0.0000	0.0000	0.0000;
	2014	2008	0.02253	0.09931	0.04623	187	0	0	0	0	1	0	0	-10.2900	-0.3100	10.3200	-4.3900	0.0000	0.0000	0.0000	0.0000;
	2008	2052	0.01877	0.08271	0.0385	187	0	0	0	0	1	0	0	-18.3800	2.1100	18.4400	-5.8300	0.0000	0.0000	0.0000	0.0000;
	2009	2049	0.01224	0.07176	0.03583	251	0	0	0	0	1	0	0	-103.9000	23.9100	105.2400	-19.8100	0.0000	0.0000	0.0000	0.0000;
	2009	2082	0.00735	0.03126	0.01563	187	0	0	0	0	1	0	0	-8.4000	62.0900	8.6800	-62.5000	0.0000	0.0000	0.0000	0.0000;
	2109	2009	0.00725	0.03084	0.01542	250	0	0	0	0	1	0	0	-72.7300	-28.5200	73.1600	28.7600	0.0000	0.0000	0.0000	0.0000;
	2061	2010	0.02439	0.10748	0.05003	187	0	0	0	0	1	0	0	-16.6400	-4.2600	16.7000	-0.7300	0.0000	0.0000	0.0000	0.0000;
	2010	2079	0.02061	0.09083	0.04228	187	0	0	0	0	1	0	0	-34.6600	4.4800	34.9000	-7.9000	0.0000	0.0000	0.0000	0.0000;
	2010	2091	0.02461	0.10467	0.05235	187	0	0	0	0	1	0	0	-38.8500	12.1700	39.2500	-15.9800	0.0000	0.0000	0.0000	0.0000;
	2012	2011	0.00044	0.03546	0	461	0	0	1	0	1	0	0	116.6300	-31.1100	-116.5700	36.0000	0.0000	0.0000	0.0000	0.0000;
	2013	2011	0.00043	0.02897	0	412	0	0	1	0	1	0	0	150.4500	-28.8900	-150.3600	35.2900	0.0000	0.0000	0.0000	0.0000;
	2127	2011	0.00108	0.01307	0.86827	2020	0	0	0	0	1	0	0	-266.2100	-13.8500	266.9300	-71.2900	0.0000	0.0000	0.0000	0.0000;
	2012	2041	0.01245	0.05297	0.02649	187	0	0	0	0	1	0	0	-72.0300	15.3100	72.6700	-15.3800	0.0000	0.0000	0.0000	0.0000;
	2012	2052	0.02008	0.08851	0.0412	187	0	0	0	0	1	0	0	43.6400	-1.5100	-43.2800	-1.2100	0.0000	0.0000	0.0000	0.0000;
	2093	2012	0.01029	0.04536	0.02111	187	0	0	0	0	1	0	0	-29.0100	7.1100	29.0900	-8.9500	0.0000	0.0000	0.0000	0.0000;
	2012	2123	0.00995	0.0423	0.02115	251	0	0	0	0	1	0	0	-117.3400	26.2700	118.7100	-22.7000	0.0000	0.0000	0.0000	0.0000;
	2014	2029	0.01859	0.07908	0.03955	187	0	0	0	0	1	0	0	-15.1300	-6.9000	15.1800	2.9500	0.0000	0.0000	0.0000	0.0000;
	2015	2037	0.00862	0.03799	0.01769	187	0	0	0	0	1	0	0	8.9800	-32.8600	-8.8900	31.4400	0.0000	0.0000	0.0000	0.0000;
	5014	2015	0.00961	0.04237	0.01972	187	0	0	0	0	1	0	0	13.7800	-33.0100	-13.6700	31.5300	0.0000	0.0000	0.0000	0.0000;
	2043	2016	0.00593	0.02614	0.01217	187	0	0	0	0	1	0	0	22.6400	-11.3700	-22.6000	10.2900	0.0000	0.0000	0.0000	0.0000;
	2069	2016	0.0084	0.03705	0.01725	280.5	0	0	0	0	1	0	0	46.9200	29.2200	-46.6700	-29.9200	0.0000	0.0000	0.0000	0.0000;
	2018	2017	0.00048	0.05045	0	271	0	0	1	0	1	0	0	28.9100	-5.0100	-28.9100	5.4200	0.0000	0.0000	0.0000	0.0000;
	2019	2017	0.0002	0.01182	0	454	0	0	1	0	1	0	0	0.0000	0.0000	-0.0000	-0.0000	0.0000	0.0000	0.0000	0.0000;
	2017	2096	0.00253	0.03068	2.03836	2020	0	0	0	0	1	0	0	-256.6400	-74.2500	258.2400	-122.8500	0.0000	0.0000	0.0000	0.0000;
	2017	2127	0.00089	0.01081	0.71846	2020	0	0	0	0	1	0	0	285.5500	-143.7400	-284.7700	76.1300	0.0000	0.0000	0.0000	0.0000;
	2018	2093	0.01163	0.05125	0.02386	187	0	0	0	0	1	0	0	-28.9100	5.0100	29.0100	-7.1100	0.0000	0.0000	0.0000	0.0000;
	2045	2020	0.00097	0.00548	0.00295	310	0	0	0	0	1	0	0	-167.0500	20.1200	167.3300	-18.8500	0.0000	0.0000	0.0000	0.0000;
	2055	2020	0.00102	0.00744	0.00422	409	0	0	0	0	1	0	0	215.7800	-2.2000	-215.3000	5.2600	0.0000	0.0000	0.0000	0.0000;
	2022	2021	0.00034	0.01888	0	867	0	0	1	0	1	0	0	-183.3600	-13.6800	183.4700	19.9200	0.0000	0.0000	0.0000	0.0000;
	2023	2021	0.00054	0.03406	0	319	0	0	1	0	1	0	0	83.1000	15.4400	-83.0600	-13.1000	0.0000	0.0000	0.0000	0.0000;
	2024	2021	0.00036	0.02425	0	391	0	0	1	0	1	0	0	166.2100	22.7000	-166.1200	-16.1500	0.0000	0.0000	0.0000	0.0000;
	2113	2021	0.0001	0.00124	0.08207	2020	0	0	0	0	1	0	0	674.7300	-64.4900	-674.2900	61.5700	0.0000	0.0000	0.0000	0.0000;
	2022	2040	0.02207	0.09391	0.04697	187	0	0	0	0	1	0	0	12.6400	-2.5700	-12.6100	-2.0700	0.0000	0.0000	0.0000	0.0000;
	2064	2022	0.00558	0.03156	0.01697	251	0	0	0	0	1	0	0	-92.5800	-4.6900	93.0600	5.6600	0.0000	0.0000	0.0000	0.0000;
	2025	2055	0.0023	0.01016	0.00473	187	0	0	0	0	1	0	0	-33.3200	-25.3600	33.3600	25.0700	0.0000	0.0000	0.0000	0.0000;
	2067	2025	0.00317	0.014	0.00651	187	0	0	0	0	1	0	0	6.3100	-14.7500	-6.3000	14.1400	0.0000	0.0000	0.0000	0.0000;
	2058	2026	0.02475	0.10526	0.05264	187	0	0	0	0	1	0	0	64.2900	-13.4400	-63.3000	12.0900	0.0000	0.0000	0.0000	0.0000;
	2128	2026	0.01207	0.05318	0.02475	187	0	0	0	0	1	0	0	-44.4700	15.8800	44.7300	-17.3600	0.0000	0.0000	0.0000	0.0000;
	2027	2090	0.01692	0.07455	0.0347	187	0	0	0	0	1	0	0	13.7800	-5.3400	-13.7500	1.9900	0.0000	0.0000	0.0000	0.0000;
	2028	2045	0.00363	0.02129	0.01063	251	0	0	0	0	1	0	0	-143.6600	30.0800	144.4500	-26.5200	0.0000	0.0000	0.0000	0.0000;
	2028	2109	0.01026	0.0452	0.02104	250	0	0	0	0	1	0	0	-38.7300	-20.2100	38.9200	18.9400	0.0000	0.0000	0.0000	0.0000;
	2112	2028	0.00369	0.02161	0.01079	310	0	0	0	0	1	0	0	-167.1000	19.0200	168.1500	-13.9100	0.0000	0.0000	0.0000	0.0000;
	2030	2106	0.0118	0.05199	0.0242	187	0	0	0	0	1	0	0	67.2800	-17.2200	-66.7000	17.3800	0.0000	0.0000	0.0000	0.0000;
	2122	2030	0.00737	0.0432	0.02157	251	0	0	0	0	1	0	0	115.4100	-0.2100	-114.4200	3.8600	0.0000	0.0000	0.0000	0.0000;
	2031	2048	0.02398	0.10567	0.04919	187	0	0	0	0	1	0	0	33.2900	-13.6200	-33.0100	9.6300	0.0000	0.0000	0.0000	0.0000;
	2031	2087	0.02177	0.09259	0.04631	187	0	0	0	0	1	0	0	-39.0600	11.9800	39.4100	-15.3300	0.0000	0.0000	0.0000	0.0000;
	2032	2114	0.01097	0.04834	0.0225	187	0	0	0	0	1	0	0	-59.6000	-0.6600	59.9900	0.0700	0.0000	0.0000	0.0000	0.0000;
	2122	2032	0.01414	0.06232	0.02901	187	0	0	0	0	1	0	0	-55.8100	-0.6700	56.2500	-0.2900	0.0000	0.0000	0.0000	0.0000;
	2129	2033	0.00522	0.02298	0.0107	187	0	0	0	0	1	0	0	-38.6100	14.7500	38.7000	-15.4100	0.0000	0.0000	0.0000	0.0000;
	2033	5288	0.00925	0.03935	0.01968	187	0	0	0	0	1	0	0	-52.2700	11.5600	52.5400	-12.3500	0.0000	0.0000	0.0000	0.0000;
	2034	2043	0.00439	0.01867	0.00934	187	0	0	0	0	1	0	0	26.9100	-10.9700	-26.8700	10.1700	0.0000	0.0000	0.0000	0.0000;
	2046	2034	0.00468	0.01993	0.00997	187	0	0	0	0	1	0	0	32.3000	-10.2500	-32.2500	9.4600	0.0000	0.0000	0.0000	0.0000;
	2035	2066	0.01411	0.08272	0.04131	251	0	0	0	0	1	0	0	-61.5700	12.3900	62.1100	-13.5300	0.0000	0.0000	0.0000	0.0000;
	2035	2091	0.01863	0.10528	0.05663	251	0	0	0	0	1	0	0	56.8900	-13.7100	-56.2900	11.1500	0.0000	0.0000	0.0000	0.0000;
...